data_PHBARB11
_symmetry_space_group_name_H-M    'P1'
_symmetry_Int_Tables_number       1
loop_
_symmetry_equiv_pos_site_id
_symmetry_equiv_pos_as_xyz
1 x,y,z
_cell_length_a                   14.57444
_cell_length_b                   6.8800019
_cell_length_c                   22.996416
_cell_angle_alpha                90.0
_cell_angle_beta                 93.9877
_cell_angle_gamma                90.0
loop_
_atom_site_label
_atom_site_type_symbol
_atom_site_fract_x
_atom_site_fract_y
_atom_site_fract_z
     1  O          0.73402000       0.86905000       0.13091180
     2  O          0.76598000       0.36905000       0.36908820
     3  O          0.26598000       0.13095000       0.86908820
     4  O          0.23402000       0.63095000       0.63091180
     5  O          0.77332000       0.46685000       0.05568160
     6  O          0.72668000       0.96685000       0.44431840
     7  O          0.22668000       0.53315000       0.94431840
     8  O          0.27332000       0.03315000       0.55568160
     9  O          0.78113000       0.90135000       0.93872000
    10  O          0.71887000       0.40135000       0.56128000
    11  O          0.21887000       0.09865000       0.06128000
    12  O          0.28113000       0.59865000       0.43872000
    13  N          0.74913000       0.17146000       0.09232000
    14  N          0.75087000       0.67146000       0.40768000
    15  N          0.25087000       0.82854000       0.90768000
    16  N          0.24913000       0.32854000       0.59232000
    17  H          0.74130000       0.22350000       0.12560000
    18  H          0.75870000       0.72350000       0.37440000
    19  H          0.25870000       0.77650000       0.87440000
    20  H          0.24130000       0.27650000       0.62560000
    21  N          0.75763000       0.88924000       0.03452000
    22  N          0.74237000       0.38924000       0.46548000
    23  N          0.24237000       0.11076000       0.96548000
    24  N          0.25763000       0.61076000       0.53452000
    25  H          0.75830000       0.76450000       0.03260000
    26  H          0.74170000       0.26450000       0.46740000
    27  H          0.24170000       0.23550000       0.96740000
    28  H          0.25830000       0.73550000       0.53260000
    29  C          0.75764000       0.21237000       0.98513000
    30  C          0.74236000       0.71237000       0.51487000
    31  C          0.24236000       0.78763000       0.01487000
    32  C          0.25764000       0.28763000       0.48513000
    33  C          0.76654000      -0.01038000       0.98254000
    34  C          0.73346000       0.48962000       0.51746000
    35  C          0.23346000       0.01038000       0.01746000
    36  C          0.26654000       0.51038000       0.48254000
    37  C          0.74774000       0.96961000       0.08843000
    38  C          0.75226000       0.46961000       0.41157000
    39  C          0.25226000       0.03039000       0.91157000
    40  C          0.24774000       0.53039000       0.58843000
    41  C          0.76224000       0.29201000       0.04613000
    42  C          0.73776000       0.79201000       0.45387000
    43  C          0.23776000       0.70799000       0.95387000
    44  C          0.26224000       0.20799000       0.54613000
    45  C          0.83654000       0.29697000       0.95223000
    46  C          0.66346000       0.79697000       0.54777000
    47  C          0.16346000       0.70303000       0.04777000
    48  C          0.33654000       0.20303000       0.45223000
    49  H          0.82940000       0.43690000       0.94950000
    50  H          0.67060000       0.93690000       0.55050000
    51  H          0.17060000       0.56310000       0.05050000
    52  H          0.32940000       0.06310000       0.44950000
    53  H          0.83320000       0.24500000       0.91290000
    54  H          0.66680000       0.74500000       0.58710000
    55  H          0.16680000       0.75500000       0.08710000
    56  H          0.33320000       0.25500000       0.41290000
    57  C          0.48654000       0.37911000       0.91383000
    58  C          0.01346000       0.87911000       0.58617000
    59  C          0.51346000       0.62089000       0.08617000
    60  C          0.98654000       0.12089000       0.41383000
    61  H          0.42820000       0.41680000       0.89900000
    62  H          0.07180000       0.91680000       0.60100000
    63  H          0.57180000       0.58320000       0.10100000
    64  H          0.92820000       0.08320000       0.39900000
    65  C          0.58924000       0.13348000       0.95263000
    66  C          0.91076000       0.63348000       0.54737000
    67  C          0.41076000       0.86652000       0.04737000
    68  C          0.08924000       0.36652000       0.45263000
    69  H          0.59940000       0.00540000       0.96440000
    70  H          0.90060000       0.50540000       0.53560000
    71  H          0.40060000      -0.00540000       0.03560000
    72  H          0.09940000       0.49460000       0.46440000
    73  C          0.66084000       0.26599000       0.95783000
    74  C          0.83916000       0.76599000       0.54217000
    75  C          0.33916000       0.73401000       0.04217000
    76  C          0.16084000       0.23401000       0.45783000
    77  C          0.64314000       0.46048000       0.94083000
    78  C          0.85686000       0.96048000       0.55917000
    79  C          0.35686000       0.53952000       0.05917000
    80  C          0.14314000       0.03952000       0.44083000
    81  H          0.69010000       0.55200000       0.94430000
    82  H          0.80990000       0.05200000       0.55570000
    83  H          0.30990000       0.44800000       0.05570000
    84  H          0.19010000       0.94800000       0.44430000
    85  C          0.50254000       0.18949000       0.92993000
    86  C         -0.00254000       0.68949000       0.57007000
    87  C          0.49746000       0.81051000       0.07007000
    88  C          0.00254000       0.31051000       0.42993000
    89  H          0.45520000       0.09850000       0.92560000
    90  H          0.04480000       0.59850000       0.57440000
    91  H          0.54480000       0.90150000       0.07440000
    92  H          0.95520000       0.40150000       0.42560000
    93  C          0.55675000       0.51429000       0.91933000
    94  C          0.94325000       0.01429000       0.58067000
    95  C          0.44325000       0.48571000       0.08067000
    96  C          0.05675000      -0.01429000       0.41933000
    97  H          0.54520000       0.64260000       0.90840000
    98  H          0.95480000       0.14260000       0.59160000
    99  H          0.45480000       0.35740000       0.09160000
   100  H          0.04520000       0.85740000       0.40840000
   101  C          0.93194000       0.24937000       0.98263000
   102  C          0.56806000       0.74937000       0.51737000
   103  C          0.06806000       0.75063000       0.01737000
   104  C          0.43194000       0.25063000       0.48263000
   105  H          0.95040000       0.35230000       0.00910000
   106  H          0.54960000       0.85230000       0.49090000
   107  H          0.04960000       0.64770000       0.99090000
   108  H          0.45040000       0.14770000       0.50910000
   109  H          0.97610000       0.23620000       0.95380000
   110  H          0.52390000       0.73620000       0.54620000
   111  H          0.02390000       0.76380000       0.04620000
   112  H          0.47610000       0.26380000       0.45380000
   113  H          0.92840000       0.12970000       0.00390000
   114  H          0.57160000       0.62970000       0.49610000
   115  H          0.07160000       0.87030000      -0.00390000
   116  H          0.42840000       0.37030000       0.50390000
   117  O          0.45483000       0.71065000       0.63800190
   118  O          0.04517000       0.21065000       0.86199810
   119  O          0.54517000       0.28935000       0.36199810
   120  O          0.95483000       0.78935000       0.13800190
   121  O          0.43032000       0.81095000       0.83723190
   122  O          0.06968000       0.31095000       0.66276810
   123  O          0.56968000       0.18905000       0.16276810
   124  O          0.93032000       0.68905000       0.33723190
   125  O          0.25872000       0.15775000       0.70316170
   126  O          0.24128000       0.65775000       0.79683830
   127  O          0.74128000       0.84225000       0.29683830
   128  O          0.75872000       0.34225000       0.20316170
   129  N          0.36333000       0.94634000       0.67092000
   130  N          0.13667000       0.44634000       0.82908000
   131  N          0.63667000       0.05366000       0.32908000
   132  N          0.86333000       0.55366000       0.17092000
   133  H          0.34370000       0.97260000       0.63570000
   134  H          0.15630000       0.47260000       0.86430000
   135  H          0.65630000       0.02740000       0.36430000
   136  H          0.84370000       0.52740000       0.13570000
   137  N          0.35383000      -0.00106000       0.77062000
   138  N          0.14617000       0.49894000       0.72938000
   139  N          0.64617000       0.00106000       0.22938000
   140  N          0.85383000       0.50106000       0.27062000
   141  H          0.32950000       0.06110000       0.79810000
   142  H          0.17050000       0.56110000       0.70190000
   143  H          0.67050000       0.93890000       0.20190000
   144  H          0.82950000       0.43890000       0.29810000
   145  C          0.48334000       0.80413000       0.73873000
   146  C          0.01666000       0.30413000       0.76127000
   147  C          0.51666000       0.19587000       0.26127000
   148  C          0.98334000       0.69587000       0.23873000
   149  C          0.32304000       0.04329000       0.71563000
   150  C          0.17696000       0.54329000       0.78437000
   151  C          0.67696000       0.95671000       0.28437000
   152  C          0.82304000       0.45671000       0.21563000
   153  C          0.59154000       0.04018000       0.69083000
   154  C          0.90846000       0.54018000       0.80917000
   155  C          0.40846000       0.95982000       0.30917000
   156  C          0.09154000       0.45982000       0.19083000
   157  H          0.56520000       0.00320000       0.65450000
   158  H          0.93480000       0.50320000       0.84550000
   159  H          0.43480000      -0.00320000       0.34550000
   160  H          0.06520000       0.49680000       0.15450000
   161  C          0.67474000       0.14608000       0.80043000
   162  C          0.82526000       0.64608000       0.69957000
   163  C          0.32526000       0.85392000       0.19957000
   164  C          0.17474000       0.35392000       0.30043000
   165  H          0.70230000       0.18200000       0.83650000
   166  H          0.79770000       0.68200000       0.66350000
   167  H          0.29770000       0.81800000       0.16350000
   168  H          0.20230000       0.31800000       0.33650000
   169  C          0.56274000       0.95792000       0.74233000
   170  C          0.93726000       0.45792000       0.75767000
   171  C          0.43726000       0.04208000       0.25767000
   172  C          0.06274000       0.54208000       0.24233000
   173  C          0.66214000       0.18158000       0.69633000
   174  C          0.83786000       0.68158000       0.80367000
   175  C          0.33786000       0.81842000       0.30367000
   176  C          0.16214000       0.31842000       0.19633000
   177  H          0.68090000       0.24390000       0.66330000
   178  H          0.81910000       0.74390000       0.83670000
   179  H          0.31910000       0.75610000       0.33670000
   180  H          0.18090000       0.25610000       0.16330000
   181  C          0.60414000       0.00968000       0.79633000
   182  C          0.89586000       0.50968000       0.70367000
   183  C          0.39586000      -0.00968000       0.20367000
   184  C          0.10414000       0.49032000       0.29633000
   185  H          0.58460000       0.95260000       0.82990000
   186  H          0.91540000       0.45260000       0.67010000
   187  H          0.41540000       0.04740000       0.17010000
   188  H          0.08460000       0.54740000       0.32990000
   189  C          0.43444000       0.80761000       0.67963000
   190  C          0.06556000       0.30761000       0.82037000
   191  C          0.56556000       0.19239000       0.32037000
   192  C          0.93444000       0.69239000       0.17963000
   193  C          0.42154000       0.86182000       0.78743000
   194  C          0.07846000       0.36182000       0.71257000
   195  C          0.57846000       0.13818000       0.21257000
   196  C          0.92154000       0.63818000       0.28743000
   197  C          0.52423000       0.60243000       0.75193000
   198  C          0.97577000       0.10243000       0.74807000
   199  C          0.47577000       0.39757000       0.24807000
   200  C          0.02423000       0.89757000       0.25193000
   201  H          0.55690000       0.60450000       0.79010000
   202  H          0.94310000       0.10450000       0.70990000
   203  H          0.44310000       0.39550000       0.20990000
   204  H          0.05690000       0.89550000       0.29010000
   205  H          0.56830000       0.57260000       0.72350000
   206  H          0.93170000       0.07260000       0.77650000
   207  H          0.43170000       0.42740000       0.27650000
   208  H          0.06830000       0.92740000       0.22350000
   209  C          0.70274000       0.22658000       0.74973000
   210  C          0.79726000       0.72658000       0.75027000
   211  C          0.29726000       0.77342000       0.25027000
   212  C          0.20274000       0.27342000       0.24973000
   213  H          0.75110000       0.31490000       0.75210000
   214  H          0.74890000       0.81490000       0.74790000
   215  H          0.24890000       0.68510000       0.24790000
   216  H          0.25110000       0.18510000       0.25210000
   217  C          0.45053000       0.44013000       0.75053000
   218  C          0.04947000       0.94013000       0.74947000
   219  C          0.54947000       0.55987000       0.24947000
   220  C          0.95053000       0.05987000       0.25053000
   221  H          0.42800000       0.42640000       0.78850000
   222  H          0.07200000       0.92640000       0.71150000
   223  H          0.57200000       0.57360000       0.21150000
   224  H          0.92800000       0.07360000       0.28850000
   225  H          0.47720000       0.31980000       0.73910000
   226  H          0.02280000       0.81980000       0.76090000
   227  H          0.52280000       0.68020000       0.26090000
   228  H          0.97720000       0.18020000       0.23910000
   229  H          0.40040000       0.47400000       0.72300000
   230  H          0.09960000       0.97400000       0.77700000
   231  H          0.59960000       0.52600000       0.27700000
   232  H          0.90040000       0.02600000       0.22300000
