data_PHBARB10
_symmetry_space_group_name_H-M    'P1'
_symmetry_Int_Tables_number       1
loop_
_symmetry_equiv_pos_site_id
_symmetry_equiv_pos_as_xyz
1 x,y,z
_cell_length_a                   13.07643
_cell_length_b                   6.726801
_cell_length_c                   26.591218
_cell_angle_alpha                90.0
_cell_angle_beta                 99.0837
_cell_angle_gamma                90.0
loop_
_atom_site_label
_atom_site_type_symbol
_atom_site_fract_x
_atom_site_fract_y
_atom_site_fract_z
     1  O          0.50810190       0.31504000       0.09576800
     2  O         -0.00810190       0.81504000       0.40423200
     3  O          0.49189810       0.68496000       0.90423200
     4  O          0.00810190       0.18496000       0.59576800
     5  O          0.44862000       0.32054000       0.25872900
     6  O          0.05138000       0.82054000       0.24127100
     7  O          0.55138000       0.67946000       0.74127100
     8  O          0.94862000       0.17946000       0.75872900
     9  O          0.49202000       0.72174000       0.17108900
    10  O          0.00798000       0.22174000       0.32891100
    11  O          0.50798000       0.27826000       0.82891100
    12  O         -0.00798000       0.77826000       0.67108900
    13  N          0.50482000       0.01924000       0.13595100
    14  N         -0.00482000       0.51924000       0.36404900
    15  N          0.49518000      -0.01924000       0.86404900
    16  N          0.00482000       0.48076000       0.63595100
    17  H          0.51920000       0.95910000       0.10850000
    18  H          0.98080000       0.45910000       0.39150000
    19  H          0.48080000       0.04090000       0.89150000
    20  H          0.01920000       0.54090000       0.60850000
    21  N          0.48092000       0.31434000       0.17796100
    22  N          0.01908000       0.81434000       0.32203900
    23  N          0.51908000       0.68566000       0.82203900
    24  N          0.98092000       0.18566000       0.67796100
    25  H          0.47770000       0.44490000       0.17740000
    26  H          0.02230000       0.94490000       0.32260000
    27  H          0.52230000       0.55510000       0.82260000
    28  H          0.97770000       0.05510000       0.67740000
    29  C          0.49883000       0.22195000       0.13427120
    30  C          0.00117000       0.72195000       0.36572880
    31  C          0.50117000       0.77805000       0.86572880
    32  C         -0.00117000       0.27805000       0.63427120
    33  C          0.49073000       0.90095000       0.17578120
    34  C          0.00927000       0.40095000       0.32421880
    35  C          0.50927000       0.09905000       0.82421880
    36  C         -0.00927000       0.59905000       0.67578120
    37  C          0.46743000       0.22205000       0.22289120
    38  C          0.03257000       0.72205000       0.27710880
    39  C          0.53257000       0.77795000       0.77710880
    40  C          0.96743000       0.27795000       0.72289120
    41  C          0.47553000      -0.00135000       0.22590120
    42  C          0.02447000       0.49865000       0.27409880
    43  C          0.52447000       0.00135000       0.77409880
    44  C          0.97553000       0.50135000       0.72590120
    45  C          0.56983000       0.94016000       0.26546120
    46  C          0.93017000       0.44016000       0.23453880
    47  C          0.43017000       0.05984000       0.73453880
    48  C          0.06983000       0.55984000       0.76546120
    49  C          0.65573000       0.06386000       0.27546140
    50  C          0.84427000       0.56386000       0.22453860
    51  C          0.34427000       0.93614000       0.72453860
    52  C          0.15573000       0.43614000       0.77546140
    53  H          0.65670000       0.18650000       0.25790000
    54  H          0.84330000       0.68650000       0.24210000
    55  H          0.34330000       0.81350000       0.74210000
    56  H          0.15670000       0.31350000       0.75790000
    57  C          0.37183000       0.92136000       0.23963130
    58  C          0.12817000       0.42136000       0.26036870
    59  C          0.62817000       0.07864000       0.76036870
    60  C          0.87183000       0.57864000       0.73963130
    61  H          0.37340000       0.77420000       0.24060000
    62  H          0.12660000       0.27420000       0.25940000
    63  H          0.62660000       0.22580000       0.75940000
    64  H          0.87340000       0.72580000       0.74060000
    65  H          0.36450000       0.96900000       0.27410000
    66  H          0.13550000       0.46900000       0.22590000
    67  H          0.63550000       0.03100000       0.72590000
    68  H          0.86450000       0.53100000       0.77410000
    69  C          0.65643000       0.70426000       0.32613140
    70  C          0.84357000       0.20426000       0.17386860
    71  C          0.34357000       0.29574000       0.67386860
    72  C          0.15643000       0.79574000       0.82613140
    73  H          0.65690000       0.57990000       0.34320000
    74  H          0.84310000       0.07990000       0.15680000
    75  H          0.34310000       0.42010000       0.65680000
    76  H          0.15690000       0.92010000       0.84320000
    77  C          0.57283000       0.75816000       0.29063130
    78  C          0.92717000       0.25816000       0.20936870
    79  C          0.42717000       0.24184000       0.70936870
    80  C          0.07283000       0.74184000       0.79063130
    81  H          0.51600000       0.66930000       0.28310000
    82  H          0.98400000       0.16930000       0.21690000
    83  H          0.48400000       0.33070000       0.71690000
    84  H          0.01600000       0.83070000       0.78310000
    85  C          0.27803000      -0.01154000       0.20212130
    86  C          0.22197000       0.48846000       0.29787870
    87  C          0.72197000       0.01154000       0.79787870
    88  C          0.77803000       0.51154000       0.70212130
    89  H          0.21480000       0.93590000       0.21270000
    90  H          0.28520000       0.43590000       0.28730000
    91  H          0.78520000       0.06410000       0.78730000
    92  H          0.71480000       0.56410000       0.71270000
    93  H          0.28380000       0.93870000       0.16800000
    94  H          0.21620000       0.43870000       0.33200000
    95  H          0.71620000       0.06130000       0.83200000
    96  H          0.78380000       0.56130000       0.66800000
    97  H          0.27510000       0.13400000       0.20150000
    98  H          0.22490000       0.63400000       0.29850000
    99  H          0.72490000       0.86600000       0.79850000
   100  H          0.77510000       0.36600000       0.70150000
   101  C          0.73913000       0.83147000       0.33672150
   102  C          0.76087000       0.33147000       0.16327850
   103  C          0.26087000       0.16853000       0.66327850
   104  C          0.23913000       0.66853000       0.83672150
   105  H          0.79590000       0.79650000       0.36200000
   106  H          0.70410000       0.29650000       0.13800000
   107  H          0.20410000       0.20350000       0.63800000
   108  H          0.29590000       0.70350000       0.86200000
   109  C          0.74063000       0.00757000       0.31140150
   110  C          0.75937000       0.50757000       0.18859850
   111  C          0.25937000      -0.00757000       0.68859850
   112  C          0.24063000       0.49243000       0.81140150
   113  H          0.79940000       0.09190000       0.31820000
   114  H          0.70060000       0.59190000       0.18180000
   115  H          0.20060000       0.90810000       0.68180000
   116  H          0.29940000       0.40810000       0.81820000
   117  O          0.72861180       0.89343000       0.93082200
   118  O          0.77138820       0.39343000       0.56917800
   119  O          0.27138820       0.10657000       0.06917800
   120  O          0.22861180       0.60657000       0.43082200
   121  O          0.50976180       0.81233000       0.04396800
   122  O         -0.00976180       0.31233000       0.45603200
   123  O          0.49023820       0.18767000       0.95603200
   124  O          0.00976180       0.68767000       0.54396800
   125  O          0.72099190       0.30394000       0.02008900
   126  O          0.77900810       0.80394000       0.47991100
   127  O          0.27900810       0.69606000       0.97991100
   128  O          0.22099190       0.19606000       0.52008900
   129  N          0.63292000       0.86734000       0.99416100
   130  N          0.86708000       0.36734000       0.50583900
   131  N          0.36708000       0.13266000       0.00583900
   132  N          0.13292000       0.63266000       0.49416100
   133  H          0.61360000      -0.00760000       0.99030000
   134  H          0.88640000       0.49240000       0.50970000
   135  H          0.38640000       0.00760000       0.00970000
   136  H          0.11360000       0.50760000       0.49030000
   137  N          0.62142000       0.56424000       0.03452100
   138  N          0.87858000       0.06424000       0.46547900
   139  N          0.37858000       0.43576000       0.96547900
   140  N          0.12142000       0.93576000       0.53452100
   141  H          0.58980000       0.48950000       0.05450000
   142  H          0.91020000      -0.01050000       0.44550000
   143  H          0.41020000       0.51050000       0.94550000
   144  H          0.08980000       0.01050000       0.55450000
   145  C          0.70373000       0.47925000       0.01484120
   146  C          0.79627000      -0.02075000       0.48515880
   147  C          0.29627000       0.52075000       0.98515880
   148  C          0.20373000       0.02075000       0.51484120
   149  C          0.70973000       0.80115000       0.96766880
   150  C          0.79027000       0.30115000       0.53233120
   151  C          0.29027000       0.19885000       0.03233120
   152  C          0.20973000       0.69885000       0.46766880
   153  C          0.77183000       0.62405000       0.99038880
   154  C          0.72817000       0.12405000       0.50961120
   155  C          0.22817000       0.37595000       0.00961120
   156  C          0.27183000       0.87595000       0.49038880
   157  C          0.85512000       0.70375000       0.03330110
   158  C          0.64488000       0.20375000       0.46669890
   159  C          0.14488000       0.29625000       0.96669890
   160  C          0.35512000       0.79625000       0.53330110
   161  C          0.58553000       0.75265000       0.02552110
   162  C          0.91447000       0.25265000       0.47447890
   163  C          0.41447000       0.24735000       0.97447890
   164  C          0.08553000       0.74735000       0.52552110
   165  C          0.82363000       0.51535000       0.94979870
   166  C          0.67637000       0.01535000       0.55020130
   167  C          0.17637000       0.48465000       0.05020130
   168  C          0.32363000      -0.01535000       0.44979870
   169  H          0.87080000       0.60910000       0.93620000
   170  H          0.62920000       0.10910000       0.56380000
   171  H          0.12920000       0.39090000       0.06380000
   172  H          0.37080000       0.89090000       0.43620000
   173  H          0.86620000       0.40490000       0.96640000
   174  H          0.63380000       0.90490000       0.53360000
   175  H          0.13380000       0.59510000       0.03360000
   176  H          0.36620000       0.09510000       0.46640000
   177  C          0.89703000       0.58407000       0.07363140
   178  C          0.60297000       0.08407000       0.42636860
   179  C          0.10297000       0.41593000       0.92636860
   180  C          0.39703000       0.91593000       0.57363140
   181  H          0.87330000       0.45100000       0.07520000
   182  H          0.62670000       0.95100000       0.42480000
   183  H          0.12670000       0.54900000       0.92480000
   184  H          0.37330000       0.04900000       0.57520000
   185  C          0.74773000       0.43176000       0.90554870
   186  C          0.75227000       0.93176000       0.59445130
   187  C          0.25227000       0.56824000       0.09445130
   188  C          0.24773000       0.06824000       0.40554870
   189  H          0.78620000       0.36590000       0.88150000
   190  H          0.71380000       0.86590000       0.61850000
   191  H          0.21380000       0.63410000       0.11850000
   192  H          0.28620000       0.13410000       0.38150000
   193  H          0.70620000       0.54020000       0.88830000
   194  H          0.79380000       0.04020000       0.61170000
   195  H          0.29380000       0.45980000       0.11170000
   196  H          0.20620000       0.95980000       0.38830000
   197  H          0.70200000       0.33520000       0.91840000
   198  H          0.79800000       0.83520000       0.58160000
   199  H          0.29800000       0.66480000       0.08160000
   200  H          0.20200000       0.16480000       0.41840000
   201  C          0.00783000       0.84598000       0.11007150
   202  C          0.49217000       0.34598000       0.38992850
   203  C         -0.00783000       0.15402000       0.88992850
   204  C          0.50783000       0.65402000       0.61007150
   205  H          0.05920000       0.89490000       0.13640000
   206  H          0.44080000       0.39490000       0.36360000
   207  H          0.94080000       0.10510000       0.86360000
   208  H          0.55920000       0.60510000       0.63640000
   209  C          0.97223000       0.65388000       0.11149140
   210  C          0.52777000       0.15388000       0.38850860
   211  C          0.02777000       0.34612000       0.88850860
   212  C          0.47223000       0.84612000       0.61149140
   213  H         -0.00020000       0.56880000       0.13880000
   214  H          0.50020000       0.06880000       0.36120000
   215  H          0.00020000       0.43120000       0.86120000
   216  H          0.49980000       0.93120000       0.63880000
   217  C          0.89044000       0.89686000       0.03245180
   218  C          0.60956000       0.39686000       0.46754820
   219  C          0.10956000       0.10314000       0.96754820
   220  C          0.39044000       0.60314000       0.53245180
   221  H          0.86150000      -0.01640000       0.00580000
   222  H          0.63850000       0.48360000       0.49420000
   223  H          0.13850000       0.01640000       0.99420000
   224  H          0.36150000       0.51640000       0.50580000
   225  C          0.96774000       0.96517000       0.07007190
   226  C          0.53226000       0.46517000       0.42992810
   227  C          0.03226000       0.03483000       0.92992810
   228  C          0.46774000       0.53483000       0.57007190
   229  H         -0.00670000       0.09650000       0.06810000
   230  H          0.50670000       0.59650000       0.43190000
   231  H          0.00670000       0.90350000       0.93190000
   232  H          0.49330000       0.40350000       0.56810000
