data_PHPYRO01
_symmetry_space_group_name_H-M    'P1'
_symmetry_Int_Tables_number       1
loop_
_symmetry_equiv_pos_site_id
_symmetry_equiv_pos_as_xyz
1 x,y,z
_cell_length_a                   9.2855
_cell_length_b                   10.1185
_cell_length_c                   15.9138
_cell_angle_alpha                80.5686
_cell_angle_beta                 81.5166
_cell_angle_gamma                65.6046
loop_
_atom_site_label
_atom_site_type_symbol
_atom_site_fract_x
_atom_site_fract_y
_atom_site_fract_z
     1  O          0.34061130       0.62623140       0.23887700
     2  O          0.65938870       0.37376860       0.76112300
     3  O          0.69983110       0.43005110       0.01898600
     4  O          0.30016890       0.56994890       0.98101400
     5  N          0.49645130       0.53849120       0.11771700
     6  N          0.50354870       0.46150880       0.88228300
     7  H          0.41920000       0.56120000       0.08321300
     8  H          0.58080000       0.43880000       0.91678700
     9  C          0.47074160       0.56944140       0.20241900
    10  C          0.52925840       0.43055860       0.79758100
    11  C          0.63304160       0.52409140       0.23429800
    12  C          0.36695840       0.47590860       0.76570200
    13  H          0.64701800       0.61441700       0.22901000
    14  H          0.35298200       0.38558300       0.77099000
    15  C          0.74856150       0.43213150       0.16572800
    16  C          0.25143850       0.56786850       0.83427200
    17  H          0.78241900       0.32641800       0.18521000
    18  H          0.21758100       0.67358200       0.81479000
    19  H          0.83820000       0.45421900       0.14831100
    20  H          0.16180000       0.54578100       0.85168900
    21  C          0.65182150       0.46357130       0.09180800
    22  C          0.34817850       0.53642870       0.90819200
    23  C          0.64838150       0.45236140       0.32567800
    24  C          0.35161850       0.54763860       0.67432200
    25  C          0.68269160       0.51717150       0.38609900
    26  C          0.31730840       0.48282850       0.61390100
    27  H          0.68971900       0.61231800       0.37071000
    28  H          0.31028100       0.38768200       0.62929000
    29  C          0.70120180       0.45064180       0.46981100
    30  C          0.29879820       0.54935820       0.53018900
    31  H          0.72220000       0.50020000       0.51231200
    32  H          0.27780000       0.49980000       0.48768800
    33  C          0.68719190       0.31884190       0.49310100
    34  C          0.31280810       0.68115810       0.50689900
    35  H          0.69720000       0.27620000       0.55321300
    36  H          0.30280000       0.72380000       0.44678700
    37  C          0.65402000       0.25295190       0.43337110
    38  C          0.34598000       0.74704810       0.56662890
    39  H          0.64320000       0.15720000       0.44711300
    40  H          0.35680000       0.84280000       0.55288700
    41  C          0.63342000       0.31938170       0.34968100
    42  C          0.36658000       0.68061830       0.65031900
    43  H          0.60820000       0.26920000       0.30501200
    44  H          0.39180000       0.73080000       0.69498800
    45  O          0.04658130       0.37878110       0.84090300
    46  O          0.95341870       0.62121890       0.15909700
    47  O          0.83447110       0.05003110       0.95617400
    48  O          0.16552890       0.94996890       0.04382600
    49  N          0.93033130       0.22863120       0.91455300
    50  N          0.06966870       0.77136880       0.08544700
    51  H          0.86761900       0.28891800       0.95099000
    52  H          0.13238100       0.71108200       0.04901000
    53  C          0.03721150       0.26126140       0.85349200
    54  C          0.96278850       0.73873860       0.14650800
    55  C          0.13773140       0.12375130       0.81073200
    56  C          0.86226860       0.87624870       0.18926800
    57  H          0.23921800       0.08181600       0.84091000
    58  H          0.76078200       0.91818400       0.15909000
    59  C          0.04640170       0.02423150       0.84011100
    60  C          0.95359830       0.97576850       0.15988900
    61  H          0.11820000       0.92280000       0.86378900
    62  H          0.88180000       0.07720000       0.13621100
    63  H          0.99021900       0.02091700       0.79498900
    64  H          0.00978100       0.97908300       0.20501100
    65  C          0.92512140       0.09676140       0.91034200
    66  C          0.07487860       0.90323860       0.08965800
    67  C          0.17641150       0.14984140       0.71532200
    68  C          0.82358850       0.85015860       0.28467800
    69  C          0.33251160       0.08483150       0.68026100
    70  C          0.66748840       0.91516850       0.31973900
    71  H          0.41351900       0.02451700       0.71819000
    72  H          0.58648100       0.97548300       0.28181000
    73  C          0.37176190       0.10546170       0.59282900
    74  C          0.62823810       0.89453830       0.40717100
    75  H          0.48620000       0.05831900       0.56878900
    76  H          0.51380000       0.94168100       0.43121100
    77  C          0.25522000       0.19022190       0.53937900
    78  C          0.74478000       0.80977810       0.46062100
    79  H          0.28320000       0.20871900       0.47838800
    80  H          0.71680000       0.79128100       0.52161200
    81  C          0.09912000       0.25502000       0.57363890
    82  C          0.90088000       0.74498000       0.42636110
    83  H          0.01530000       0.32120000       0.53998700
    84  H          0.98470000       0.67880000       0.46001300
    85  C          0.05959180       0.23583190       0.66115900
    86  C          0.94040820       0.76416810       0.33884100
    87  H          0.95020000       0.28651900       0.68388900
    88  H          0.04980000       0.71348100       0.31611100
    89  O          0.55806110       0.20935110       0.16533600
    90  O          0.44193890       0.79064890       0.83466400
    91  O          0.39810130       0.17567130       0.91542300
    92  O          0.60189870       0.82432870       0.08457700
    93  N          0.50971130       0.18303120       0.03318700
    94  N          0.49028870       0.81696880       0.96681300
    95  H          0.61420000       0.14620000       0.01291200
    96  H          0.38580000       0.85380000       0.98708800
    97  C          0.46577140       0.21915130       0.11549800
    98  C          0.53422860       0.78084870       0.88450200
    99  C          0.28483140       0.27477130       0.13129800
   100  C          0.71516860       0.72522870       0.86870200
   101  H          0.24261700       0.37931600       0.13899000
   102  H          0.75738300       0.62068400       0.86101000
   103  C          0.23401160       0.25540160       0.04771900
   104  C          0.76598840       0.74459840       0.95228100
   105  H          0.16120000       0.34641800       0.02121000
   106  H          0.83880000       0.65358200       0.97879000
   107  H          0.19120000       0.18181900       0.05571000
   108  H          0.80880000       0.81818100       0.94429000
   109  C          0.38412160       0.20095140       0.98900200
   110  C          0.61587840       0.79904860       0.01099800
   111  C          0.23268140       0.19625140       0.21159800
   112  C          0.76731860       0.80374860       0.78840200
   113  C          0.12115160       0.27488160       0.27336900
   114  C          0.87884840       0.72511840       0.72663100
   115  H          0.08341900       0.38231900       0.26561000
   116  H          0.91658100       0.61768100       0.73439000
   117  C          0.06967180       0.20200190       0.34539100
   118  C          0.93032820       0.79799810       0.65460900
   119  H          0.99080000       0.25720000       0.38931200
   120  H          0.00920000       0.74280000       0.61068800
   121  C          0.13035180       0.05123190       0.35736100
   122  C          0.86964820       0.94876810       0.64263900
   123  H          0.09320000      -0.00011900       0.41001200
   124  H          0.90680000       0.00011900       0.58998800
   125  C          0.24255180       0.97188830       0.29681900
   126  C          0.75744820       0.02811170       0.70318100
   127  H          0.28420000       0.86380000       0.30591100
   128  H          0.71580000       0.13620000       0.69408900
   129  C          0.29224160       0.04418140       0.22382900
   130  C          0.70775840       0.95581860       0.77617100
   131  H          0.37031900      -0.01181700       0.18041000
   132  H          0.62968100       0.01181700       0.81959000
