data_PHPYRO
_symmetry_space_group_name_H-M    'P1'
_symmetry_Int_Tables_number       1
loop_
_symmetry_equiv_pos_site_id
_symmetry_equiv_pos_as_xyz
1 x,y,z
_cell_length_a                   8.6601
_cell_length_b                   17.3131
_cell_length_c                   6.0541
_cell_angle_alpha                90.0
_cell_angle_beta                 90.0
_cell_angle_gamma                90.0
loop_
_atom_site_label
_atom_site_type_symbol
_atom_site_fract_x
_atom_site_fract_y
_atom_site_fract_z
     1  C          0.47940000       0.08790000       0.54100000
     2  C          0.02060000       0.58790000       0.04100000
     3  C          0.97940000       0.41210000       0.54100000
     4  C          0.52060000       0.91210000       0.04100000
     5  C          0.08510000       0.16110000       0.77120000
     6  C          0.41490000       0.66110000       0.27120000
     7  C          0.58510000       0.33890000       0.77120000
     8  C          0.91490000       0.83890000       0.27120000
     9  C          0.63620000       0.06750000       0.49330000
    10  C          0.86380000       0.56750000      -0.00670000
    11  C          0.13620000       0.43250000       0.49330000
    12  C          0.36380000       0.93250000      -0.00670000
    13  C          0.70560000       0.09500000       0.31190000
    14  C          0.79440000       0.59500000       0.81190000
    15  C          0.20560000       0.40500000       0.31190000
    16  C          0.29440000       0.90500000       0.81190000
    17  C          0.62990000       0.14170000       0.17000000
    18  C          0.87010000       0.64170000       0.67000000
    19  C          0.12990000       0.35830000       0.17000000
    20  C          0.37010000       0.85830000       0.67000000
    21  C          0.47870000       0.16040000       0.21000000
    22  C          0.02130000       0.66040000       0.71000000
    23  C          0.97870000       0.33960000       0.21000000
    24  C          0.52130000       0.83960000       0.71000000
    25  C          0.40070000       0.13400000       0.39430000
    26  C          0.09930000       0.63400000       0.89430000
    27  C          0.90070000       0.36600000       0.39430000
    28  C          0.59930000       0.86600000       0.89430000
    29  C          0.23390000       0.15590000       0.43520000
    30  C          0.26610000       0.65590000       0.93520000
    31  C          0.73390000       0.34410000       0.43520000
    32  C          0.76610000       0.84410000       0.93520000
    33  C          0.13510000       0.08480000       0.47100000
    34  C          0.36490000       0.58480000       0.97100000
    35  C          0.63510000       0.41520000       0.47100000
    36  C          0.86490000       0.91520000       0.97100000
    37  C          0.20180000       0.20580000       0.64240000
    38  C          0.29820000       0.70580000       0.14240000
    39  C          0.70180000       0.29420000       0.64240000
    40  C          0.79820000       0.79420000       0.14240000
    41  H          0.43000000       0.07200000       0.67200000
    42  H          0.07000000       0.57200000       0.17200000
    43  H          0.93000000       0.42800000       0.67200000
    44  H          0.57000000       0.92800000       0.17200000
    45  H          0.66600000       0.04300000       0.61700000
    46  H          0.83400000       0.54300000       0.11700000
    47  H          0.16600000       0.45700000       0.61700000
    48  H          0.33400000       0.95700000       0.11700000
    49  H          0.81600000       0.08300000       0.28700000
    50  H          0.68400000       0.58300000       0.78700000
    51  H          0.31600000       0.41700000       0.28700000
    52  H          0.18400000       0.91700000       0.78700000
    53  H          0.68600000       0.17500000       0.05700000
    54  H          0.81400000       0.67500000       0.55700000
    55  H          0.18600000       0.32500000       0.05700000
    56  H          0.31400000       0.82500000       0.55700000
    57  H          0.42300000       0.19100000       0.09800000
    58  H          0.07700000       0.69100000       0.59800000
    59  H          0.92300000       0.30900000       0.09800000
    60  H          0.57700000       0.80900000       0.59800000
    61  H          0.20500000       0.18600000       0.30900000
    62  H          0.29500000       0.68600000       0.80900000
    63  H          0.70500000       0.31400000       0.30900000
    64  H          0.79500000       0.81400000       0.80900000
    65  H          0.29400000       0.20700000       0.70500000
    66  H          0.20600000       0.70700000       0.20500000
    67  H          0.79400000       0.29300000       0.70500000
    68  H          0.70600000       0.79300000       0.20500000
    69  H          0.15600000       0.24500000       0.56000000
    70  H          0.34400000       0.74500000       0.06000000
    71  H          0.65600000       0.25500000       0.56000000
    72  H          0.84400000       0.75500000       0.06000000
    73  H         -0.00200000       0.06000000       0.71800000
    74  H          0.50200000       0.56000000       0.21800000
    75  H          0.49800000       0.44000000       0.71800000
    76  H          0.00200000       0.94000000       0.21800000
    77  N          0.05830000       0.09230000       0.66580000
    78  N          0.44170000       0.59230000       0.16580000
    79  N          0.55830000       0.40770000       0.66580000
    80  N          0.94170000       0.90770000       0.16580000
    81  O          0.12490000       0.02960000       0.34710000
    82  O          0.37510000       0.52960000       0.84710000
    83  O          0.62490000       0.47040000       0.34710000
    84  O          0.87510000       0.97040000       0.84710000
    85  O          0.02480000       0.17980000       0.94000000
    86  O          0.47520000       0.67980000       0.44000000
    87  O          0.52480000       0.32020000       0.94000000
    88  O          0.97520000       0.82020000       0.44000000
