data_PHPYRO02
_symmetry_space_group_name_H-M    'P1'
_symmetry_Int_Tables_number       1
loop_
_symmetry_equiv_pos_site_id
_symmetry_equiv_pos_as_xyz
1 x,y,z
_cell_length_a                   15.5645
_cell_length_b                   5.715819
_cell_length_c                   20.5958
_cell_angle_alpha                90.0
_cell_angle_beta                 107.3636
_cell_angle_gamma                90.0
loop_
_atom_site_label
_atom_site_type_symbol
_atom_site_fract_x
_atom_site_fract_y
_atom_site_fract_z
     1  O          0.60947700       0.13738170       0.15603500
     2  O          0.39052300       0.63738170       0.34396500
     3  O          0.39052300       0.86261830       0.84396500
     4  O          0.60947700       0.36261830       0.65603500
     5  O          0.58707700       0.47485810       0.27223500
     6  O          0.41292300       0.97485810       0.22776500
     7  O          0.41292300       0.52514190       0.72776500
     8  O          0.58707700       0.02514190       0.77223500
     9  N          0.58340800       0.82978000       0.21925600
    10  N          0.41659200       0.32978000       0.28074400
    11  N          0.41659200       0.17022000       0.78074400
    12  N          0.58340800       0.67022000       0.71925600
    13  H          0.53101100       0.87370000       0.22158000
    14  H          0.46898900       0.37370000       0.27842000
    15  H          0.46898900       0.12630000       0.77842000
    16  H          0.53101100       0.62630000       0.72158000
    17  C          0.63389900       0.95768000       0.18786700
    18  C          0.36610100       0.45768000       0.31213300
    19  C          0.36610100       0.04232000       0.81213300
    20  C          0.63389900       0.54232000       0.68786700
    21  C          0.72391900       0.83518000       0.19905800
    22  C          0.27608100       0.33518000       0.30094200
    23  C          0.27608100       0.16482000       0.80094200
    24  C          0.72391900       0.66482000       0.69905800
    25  H          0.73031000       0.80470000       0.15358000
    26  H          0.26969000       0.30470000       0.34642000
    27  H          0.26969000       0.19530000       0.84642000
    28  H          0.73031000       0.69530000       0.65358000
    29  C          0.71235110       0.60687000       0.23419110
    30  C          0.28764890       0.10687000       0.26580890
    31  C          0.28764890       0.39313000       0.76580890
    32  C          0.71235110       0.89313000       0.73419110
    33  H          0.75701300       0.58170000       0.27511000
    34  H          0.24298700       0.08170000       0.22489000
    35  H          0.24298700       0.41830000       0.72489000
    36  H          0.75701300       0.91830000       0.77511000
    37  H          0.71201200       0.47370000       0.20539000
    38  H          0.28798800       0.97370000       0.29461000
    39  H          0.28798800       0.52630000       0.79461000
    40  H          0.71201200       0.02630000       0.70539000
    41  C          0.62242900       0.62148000       0.24596700
    42  C          0.37757100       0.12148000       0.25403300
    43  C          0.37757100       0.37852000       0.75403300
    44  C          0.62242900       0.87852000       0.74596700
    45  C          0.79995900      -0.00612000       0.23811700
    46  C          0.20004100       0.49388000       0.26188300
    47  C          0.20004100       0.00612000       0.76188300
    48  C          0.79995900       0.50612000       0.73811700
    49  C          0.85061100       0.11363000       0.20382800
    50  C          0.14938900       0.61363000       0.29617200
    51  C          0.14938900       0.88637000       0.79617200
    52  C          0.85061100       0.38637000       0.70382800
    53  H          0.83791100       0.09330000       0.15449000
    54  H          0.16208900       0.59330000       0.34551000
    55  H          0.16208900       0.90670000       0.84551000
    56  H          0.83791100       0.40670000       0.65449000
    57  C          0.91872110       0.26513000       0.23834900
    58  C          0.08127890       0.76513000       0.26165100
    59  C          0.08127890       0.73487000       0.76165100
    60  C          0.91872110       0.23487000       0.73834900
    61  H          0.95391300       0.34430000       0.21319000
    62  H          0.04608700       0.84430000       0.28681000
    63  H          0.04608700       0.65570000       0.78681000
    64  H          0.95391300       0.15570000       0.71319000
    65  C          0.93692110       0.29683000       0.30703900
    66  C          0.06307890       0.79683000       0.19296100
    67  C          0.06307890       0.70317000       0.69296100
    68  C          0.93692110       0.20317000       0.80703900
    69  H          0.98551300       0.40230000       0.33109000
    70  H          0.01448700       0.90230000       0.16891000
    71  H          0.01448700       0.59770000       0.66891000
    72  H          0.98551300       0.09770000       0.83109000
    73  C          0.88729110       0.17923000       0.34165900
    74  C          0.11270890       0.67923000       0.15834100
    75  C          0.11270890       0.82077000       0.65834100
    76  C          0.88729110       0.32077000       0.84165900
    77  H          0.90081300       0.20240000       0.39111100
    78  H          0.09918700       0.70240000       0.10888900
    79  H          0.09918700       0.79760000       0.60888900
    80  H          0.90081300       0.29760000       0.89111100
    81  C          0.81889110       0.02913000       0.30759800
    82  C          0.18110890       0.52913000       0.19240200
    83  C          0.18110890       0.97087000       0.69240200
    84  C          0.81889110       0.47087000       0.80759800
    85  H          0.78131100       0.95070000       0.33038000
    86  H          0.21868900       0.45070000       0.16962000
    87  H          0.21868900       0.04930000       0.66962000
    88  H          0.78131100       0.54930000       0.83038000
    89  O          0.34038800       0.35362000       0.11826600
    90  O          0.65961200       0.85362000       0.38173400
    91  O          0.65961200       0.64638000       0.88173400
    92  O          0.34038800       0.14638000       0.61826600
    93  O          0.57301700       0.67132000       0.05819500
    94  O          0.42698300       0.17132000       0.44180500
    95  O          0.42698300       0.32868000       0.94180500
    96  O          0.57301700       0.82868000       0.55819500
    97  N          0.46956900       0.48102000       0.09824600
    98  N          0.53043100      -0.01898000       0.40175400
    99  N          0.53043100       0.51898000       0.90175400
   100  N          0.46956900       0.01898000       0.59824600
   101  H          0.50611200       0.36130000       0.11939000
   102  H          0.49388800       0.86130000       0.38061000
   103  H          0.49388800       0.63870000       0.88061000
   104  H          0.50611200       0.13870000       0.61939000
   105  C          0.38106100       0.49983000       0.09657700
   106  C          0.61893900      -0.00017000       0.40342300
   107  C          0.61893900       0.50017000       0.90342300
   108  C          0.38106100       0.00017000       0.59657700
   109  C          0.34684100       0.73603000       0.06516800
   110  C          0.65315900       0.23603000       0.43483200
   111  C          0.65315900       0.26397000       0.93483200
   112  C          0.34684100       0.76397000       0.56516800
   113  H          0.35161000       0.83930000       0.10208000
   114  H          0.64839000       0.33930000       0.39792000
   115  H          0.64839000       0.16070000       0.89792000
   116  H          0.35161000       0.66070000       0.60208000
   117  C          0.41790110       0.81093000       0.03156900
   118  C          0.58209890       0.31093000       0.46843100
   119  C          0.58209890       0.18907000       0.96843100
   120  C          0.41790110       0.68907000       0.53156900
   121  H          0.43551200       0.97330000       0.03768000
   122  H          0.56448800       0.47330000       0.46232000
   123  H          0.56448800       0.02670000       0.96232000
   124  H          0.43551200       0.52670000       0.53768000
   125  H          0.39851100       0.77730000       0.98181000
   126  H          0.60148900       0.27730000       0.51819000
   127  H          0.60148900       0.22270000       0.01819000
   128  H          0.39851100       0.72270000       0.48181000
   129  C          0.49745100       0.65573000       0.06281700
   130  C          0.50254900       0.15573000       0.43718300
   131  C          0.50254900       0.34427000       0.93718300
   132  C          0.49745100       0.84427000       0.56281700
   133  C          0.25041100       0.73313000       0.02015700
   134  C          0.74958900       0.23313000       0.47984300
   135  C          0.74958900       0.26687000       0.97984300
   136  C          0.25041100       0.76687000       0.52015700
   137  C          0.19471110       0.92103000       0.02108900
   138  C          0.80528890       0.42103000       0.47891100
   139  C          0.80528890       0.07897000       0.97891100
   140  C          0.19471110       0.57897000       0.52108900
   141  H          0.21841200       0.04930000       0.05119000
   142  H          0.78158800       0.54930000       0.44881000
   143  H          0.78158800       0.95070000       0.94881000
   144  H          0.21841200       0.45070000       0.55119000
   145  C          0.10550130       0.91984000       0.98066890
   146  C          0.89449870       0.41984000       0.51933110
   147  C          0.89449870       0.08016000       0.01933110
   148  C          0.10550130       0.58016000       0.48066890
   149  H          0.06791400       0.05340000       0.98179000
   150  H          0.93208600       0.55340000       0.51821000
   151  H          0.93208600       0.94660000       0.01821000
   152  H          0.06791400       0.44660000       0.48179000
   153  C          0.07177130       0.73014000       0.94011890
   154  C          0.92822870       0.23014000       0.55988110
   155  C          0.92822870       0.26986000       0.05988110
   156  C          0.07177130       0.76986000       0.44011890
   157  H          0.01061500       0.72830000       0.91328900
   158  H         -0.01061500       0.22830000       0.58671100
   159  H         -0.01061500       0.27170000       0.08671100
   160  H          0.01061500       0.77170000       0.41328900
   161  C          0.12709140       0.54514000       0.93809890
   162  C          0.87290860       0.04514000       0.56190110
   163  C          0.87290860       0.45486000       0.06190110
   164  C          0.12709140       0.95486000       0.43809890
   165  H          0.10531500       0.41740000       0.90938900
   166  H          0.89468500       0.91740000       0.59061100
   167  H          0.89468500       0.58260000       0.09061100
   168  H          0.10531500       0.08260000       0.40938900
   169  C          0.21650130       0.54623000       0.97732100
   170  C          0.78349870       0.04623000       0.52267900
   171  C          0.78349870       0.45377000       0.02267900
   172  C          0.21650130       0.95377000       0.47732100
   173  H          0.25551300       0.41340000       0.97461000
   174  H          0.74448700       0.91340000       0.52539000
   175  H          0.74448700       0.58660000       0.02539000
   176  H          0.25551300       0.08660000       0.47461000
