data_PICANO
_symmetry_space_group_name_H-M    'P1'
_symmetry_Int_Tables_number       1
loop_
_symmetry_equiv_pos_site_id
_symmetry_equiv_pos_as_xyz
1 x,y,z
_cell_length_a                   6.831
_cell_length_b                   6.211
_cell_length_c                   8.162
_cell_angle_alpha                90.0
_cell_angle_beta                 117.92
_cell_angle_gamma                90.0
loop_
_atom_site_label
_atom_site_type_symbol
_atom_site_fract_x
_atom_site_fract_y
_atom_site_fract_z
     1  C          0.78130000       0.25000000       0.52940000
     2  C          0.21870000       0.75000000       0.47060000
     3  C          0.64630000       0.25000000       0.61400000
     4  C          0.35370000       0.75000000       0.38600000
     5  C          0.73100000       0.25000000       0.80360000
     6  C          0.26900000       0.75000000       0.19640000
     7  C          0.95660000       0.25000000       0.90930000
     8  C          0.04340000       0.75000000       0.09070000
     9  C          0.08530000       0.25000000       0.81920000
    10  C          0.91470000       0.75000000       0.18080000
    11  C          0.68710000       0.25000000       0.32250000
    12  C          0.31290000       0.75000000       0.67750000
    13  H         -0.00000000       0.25000000       0.40000000
    14  H          0.00000000       0.75000000       0.60000000
    15  H          0.49000000       0.25000000       0.54000000
    16  H          0.51000000       0.75000000       0.46000000
    17  H          0.63000000       0.25000000       0.85000000
    18  H          0.37000000       0.75000000       0.15000000
    19  H          0.02000000       0.25000000       0.05000000
    20  H         -0.02000000       0.75000000       0.95000000
    21  H          0.24000000       0.25000000       0.89000000
    22  H          0.76000000       0.75000000       0.11000000
    23  N         -0.00000000       0.25000000       0.63350000
    24  N          0.00000000       0.75000000       0.36650000
    25  O          0.48650000       0.25000000       0.22430000
    26  O          0.51350000       0.75000000       0.77570000
    27  O          0.83170000       0.25000000       0.25820000
    28  O          0.16830000       0.75000000       0.74180000
    29  O          0.14110000       0.25000000       0.56200000
    30  O          0.85890000       0.75000000       0.43800000
