data_PICANO03
_symmetry_space_group_name_H-M    'P1'
_symmetry_Int_Tables_number       1
loop_
_symmetry_equiv_pos_site_id
_symmetry_equiv_pos_as_xyz
1 x,y,z
_cell_length_a                   6.802011
_cell_length_b                   6.0662
_cell_length_c                   7.804013
_cell_angle_alpha                90.0
_cell_angle_beta                 112.61011
_cell_angle_gamma                90.0
loop_
_atom_site_label
_atom_site_type_symbol
_atom_site_fract_x
_atom_site_fract_y
_atom_site_fract_z
     1  O          0.57949170       0.25000000       0.43581160
     2  O          0.42050830       0.75000000       0.56418840
     3  O          0.57442000       0.25000000       0.74478160
     4  O          0.42558000       0.75000000       0.25521840
     5  O          0.26282000       0.25000000       0.77797170
     6  O          0.73718000       0.75000000       0.22202830
     7  N          0.36573190       0.25000000       0.36202160
     8  N          0.63426810       0.75000000       0.63797840
     9  C          0.25192000       0.25000000       0.47252000
    10  C          0.74808000       0.75000000       0.52748000
    11  C          0.03263000       0.25000000       0.39032000
    12  C          0.96737000       0.75000000       0.60968000
    13  C          0.92967000       0.25000000       0.19852000
    14  C          0.07033000       0.75000000       0.80148000
    15  C          0.05063000       0.25000000       0.09162000
    16  C          0.94937000       0.75000000       0.90838000
    17  C          0.26863000       0.25000000       0.17482000
    18  C          0.73137000       0.75000000       0.82518000
    19  C          0.36613000       0.25000000       0.68192000
    20  C          0.63387000       0.75000000       0.31808000
    21  H          0.61150000       0.25000000       0.62740000
    22  H          0.38850000       0.75000000       0.37260000
    23  H          0.95970000       0.25000000       0.46630000
    24  H          0.04030000       0.75000000       0.53370000
    25  H          0.77960000       0.25000000       0.14230000
    26  H          0.22040000       0.75000000       0.85770000
    27  H         -0.01240000       0.25000000       0.95470000
    28  H          0.01240000       0.75000000       0.04530000
    29  H          0.36530000       0.25000000       0.11030000
    30  H          0.63470000       0.75000000       0.88970000
