data_PICANO05
_symmetry_space_group_name_H-M    'P1'
_symmetry_Int_Tables_number       1
loop_
_symmetry_equiv_pos_site_id
_symmetry_equiv_pos_as_xyz
1 x,y,z
_cell_length_a                   6.76932
_cell_length_b                   14.15433
_cell_length_c                   6.046701
_cell_angle_alpha                90.0
_cell_angle_beta                 90.0
_cell_angle_gamma                90.0
loop_
_atom_site_label
_atom_site_type_symbol
_atom_site_fract_x
_atom_site_fract_y
_atom_site_fract_z
     1  C          0.88582000       0.16445900       0.25000000
     2  C          0.11418000       0.83554100       0.75000000
     3  C          0.88582000       0.33554100       0.75000000
     4  C          0.11418000       0.66445900       0.25000000
     5  C          0.69662000       0.19917900       0.25000000
     6  C          0.30338000       0.80082100       0.75000000
     7  C          0.69662000       0.30082100       0.75000000
     8  C          0.30338000       0.69917900       0.25000000
     9  C          0.53782000       0.13866110       0.25000000
    10  C          0.46218000       0.86133890       0.75000000
    11  C          0.53782000       0.36133890       0.75000000
    12  C          0.46218000       0.63866110       0.25000000
    13  C          0.57342190       0.04227100       0.25000000
    14  C          0.42657810       0.95772900       0.75000000
    15  C          0.57342190       0.45772900       0.75000000
    16  C          0.42657810       0.54227100       0.25000000
    17  C          0.76467190       0.00802900       0.25000000
    18  C          0.23532810      -0.00802900       0.75000000
    19  C          0.76467190       0.49197100       0.75000000
    20  C          0.23532810       0.50802900       0.25000000
    21  C          0.80452000       0.90301900       0.25000000
    22  C          0.19548000       0.09698100       0.75000000
    23  C          0.80452000       0.59698100       0.75000000
    24  C          0.19548000       0.40301900       0.25000000
    25  N          0.91679160       0.07042800       0.25000000
    26  N          0.08320840       0.92957200       0.75000000
    27  N          0.91679160       0.42957200       0.75000000
    28  N          0.08320840       0.57042800       0.25000000
    29  O          0.10432140       0.04011700       0.25000000
    30  O          0.89567860       0.95988300       0.75000000
    31  O          0.10432140       0.45988300       0.75000000
    32  O          0.89567860       0.54011700       0.25000000
    33  O         -0.00926840       0.87847700       0.25000000
    34  O          0.00926840       0.12152300       0.75000000
    35  O         -0.00926840       0.62152300       0.75000000
    36  O          0.00926840       0.37847700       0.25000000
    37  O          0.66829180       0.84795700       0.25000000
    38  O          0.33170820       0.15204300       0.75000000
    39  O          0.66829180       0.65204300       0.75000000
    40  O          0.33170820       0.34795700       0.25000000
    41  H          0.06940000       0.93920000       0.25000000
    42  H          0.93060000       0.06080000       0.75000000
    43  H          0.06940000       0.56080000       0.75000000
    44  H          0.93060000       0.43920000       0.25000000
    45  H          0.00130000       0.20191300       0.25000000
    46  H         -0.00130000       0.79808700       0.75000000
    47  H          0.00130000       0.29808700       0.75000000
    48  H         -0.00130000       0.70191300       0.25000000
    49  H          0.67930000       0.26611400       0.25000000
    50  H          0.32070000       0.73388600       0.75000000
    51  H          0.67930000       0.23388600       0.75000000
    52  H          0.32070000       0.76611400       0.25000000
    53  H          0.40830000       0.15911400       0.25000000
    54  H          0.59170000       0.84088600       0.75000000
    55  H          0.40830000       0.34088600       0.75000000
    56  H          0.59170000       0.65911400       0.25000000
    57  H          0.47030000      -0.00288600       0.25000000
    58  H          0.52970000       0.00288600       0.75000000
    59  H          0.47030000       0.50288600       0.75000000
    60  H          0.52970000       0.49711400       0.25000000
