data_PIMBAP
_symmetry_space_group_name_H-M    'P1'
_symmetry_Int_Tables_number       1
loop_
_symmetry_equiv_pos_site_id
_symmetry_equiv_pos_as_xyz
1 x,y,z
_cell_length_a                   3.74737
_cell_length_b                   7.366014
_cell_length_c                   20.5014
_cell_angle_alpha                90.0
_cell_angle_beta                 91.1384
_cell_angle_gamma                90.0
loop_
_atom_site_label
_atom_site_type_symbol
_atom_site_fract_x
_atom_site_fract_y
_atom_site_fract_z
     1  N          0.33564000       0.56549190       0.08414600
     2  N          0.16436000       0.06549190       0.41585400
     3  N          0.66436000       0.43450810       0.91585400
     4  N          0.83564000       0.93450810       0.58414600
     5  O          0.28804000       0.30847170       0.02297600
     6  O          0.21196000       0.80847170       0.47702400
     7  O          0.71196000       0.69152830       0.97702400
     8  O          0.78804000       0.19152830       0.52297600
     9  O         -0.01306000       0.02854170       0.07081600
    10  O          0.51306000       0.52854170       0.42918400
    11  O          0.01306000       0.97145830       0.92918400
    12  O          0.48694000       0.47145830       0.57081600
    13  O          0.76294000       0.04451170       0.16973600
    14  O          0.73706000       0.54451170       0.33026400
    15  O          0.23706000       0.95548830       0.83026400
    16  O          0.26294000       0.45548830       0.66973600
    17  C          0.22794000       0.38942000       0.07614700
    18  C          0.27206000       0.88942000       0.42385300
    19  C          0.77206000       0.61058000       0.92385300
    20  C          0.72794000       0.11058000       0.57614700
    21  C          0.05174000       0.30842000       0.13027700
    22  C          0.44826000       0.80842000       0.36972300
    23  C          0.94826000       0.69158000       0.86972300
    24  C          0.55174000       0.19158000       0.63027700
    25  C          0.92154000       0.11692000       0.12593800
    26  C          0.57846000       0.61692000       0.37406200
    27  C          0.07846000       0.88308000       0.87406200
    28  C          0.42154000       0.38308000       0.62593800
    29  C          0.00554000       0.40742000       0.18631800
    30  C          0.49446000       0.90742000       0.31368200
    31  C         -0.00554000       0.59258000       0.81368200
    32  C          0.50554000       0.09258000       0.68631800
    33  C          0.12734000       0.58642000       0.19153800
    34  C          0.37266000       0.08642000       0.30846200
    35  C          0.87266000       0.41358000       0.80846200
    36  C          0.62734000       0.91358000       0.69153800
    37  C          0.29194000       0.66262000       0.13938800
    38  C          0.20806000       0.16262000       0.36061200
    39  C          0.70806000       0.33738000       0.86061200
    40  C          0.79194000       0.83738000       0.63938800
    41  H          0.10070000       0.11140000       0.04361200
    42  H          0.39930000       0.61140000       0.45638800
    43  H          0.89930000       0.88860000       0.95638800
    44  H          0.60070000       0.38860000       0.54361200
    45  H          0.44280000       0.62040000       0.05050000
    46  H          0.05720000       0.12040000       0.44950000
    47  H          0.55720000       0.37960000       0.94950000
    48  H          0.94280000       0.87960000       0.55050000
    49  H          0.88920000       0.35330000       0.22220000
    50  H          0.61080000       0.85330000       0.27780000
    51  H          0.11080000       0.64670000       0.77780000
    52  H          0.38920000       0.14670000       0.72220000
    53  H          0.09580000       0.65360000       0.23040000
    54  H          0.40420000       0.15360000       0.26960000
    55  H          0.90420000       0.34640000       0.76960000
    56  H          0.59580000       0.84640000       0.73040000
    57  H          0.37560000       0.78390000       0.14200000
    58  H          0.12440000       0.28390000       0.35800000
    59  H          0.62440000       0.21610000       0.85800000
    60  H          0.87560000       0.71610000       0.64200000
