data_PIMBAP08
_symmetry_space_group_name_H-M    'P1'
_symmetry_Int_Tables_number       1
loop_
_symmetry_equiv_pos_site_id
_symmetry_equiv_pos_as_xyz
1 x,y,z
_cell_length_a                   9.7732
_cell_length_b                   4.05208
_cell_length_c                   14.9935
_cell_angle_alpha                90.0
_cell_angle_beta                 109.953
_cell_angle_gamma                90.0
loop_
_atom_site_label
_atom_site_type_symbol
_atom_site_fract_x
_atom_site_fract_y
_atom_site_fract_z
     1  O          0.14592100       0.46613000       0.30288600
     2  O          0.85407900      -0.03387000       0.19711400
     3  O          0.85407900       0.53387000       0.69711400
     4  O          0.14592100       0.03387000       0.80288600
     5  H          0.09460000       0.59360000       0.32250000
     6  H          0.90540000       0.09360000       0.17750000
     7  H          0.90540000       0.40640000       0.67750000
     8  H          0.09460000       0.90640000       0.82250000
     9  O          0.34208100       0.15473000       0.36515600
    10  O          0.65791900       0.65473000       0.13484400
    11  O          0.65791900       0.84527000       0.63484400
    12  O          0.34208100       0.34527000       0.86515600
    13  O          0.05249900       0.80993000       0.41393600
    14  O          0.94750100       0.30993000       0.08606400
    15  O          0.94750100       0.19007000       0.58606400
    16  O          0.05249900       0.69007000       0.91393600
    17  N          0.16055110       0.74933000       0.57373700
    18  N          0.83944890       0.24933000       0.92626300
    19  N          0.83944890       0.25067000       0.42626300
    20  N          0.16055110       0.75067000       0.07373700
    21  H          0.09510000       0.88380000       0.58190000
    22  H          0.90490000       0.38380000       0.91810000
    23  H          0.90490000       0.11620000       0.41810000
    24  H          0.09510000       0.61620000       0.08190000
    25  C          0.15264140       0.68013000       0.48294900
    26  C          0.84735860       0.18013000       0.01705100
    27  C          0.84735860       0.31987000       0.51705100
    28  C          0.15264140       0.81987000       0.98294900
    29  C          0.26049130       0.45863000       0.47288800
    30  C          0.73950870       0.95863000       0.02711200
    31  C          0.73950870       0.54137000       0.52711200
    32  C          0.26049130       0.04137000       0.97288800
    33  C          0.36702140       0.33853000       0.55211900
    34  C          0.63297860       0.83853000       0.94788100
    35  C          0.63297860       0.66147000       0.44788100
    36  C          0.36702140       0.16147000       0.05211900
    37  H          0.44040000       0.19810000       0.54500000
    38  H          0.55960000       0.69810000       0.95500000
    39  H          0.55960000       0.80190000       0.45500000
    40  H          0.44040000       0.30190000       0.04500000
    41  C          0.36878140       0.42084000       0.64376900
    42  C          0.63121860       0.92084000       0.85623100
    43  C          0.63121860       0.57916000       0.35623100
    44  C          0.36878140       0.07916000       0.14376900
    45  H          0.44220000       0.33640000       0.69850000
    46  H          0.55780000       0.83640000       0.80150000
    47  H          0.55780000       0.66360000       0.30150000
    48  H          0.44220000       0.16360000       0.19850000
    49  C          0.26297140       0.62403000       0.65213900
    50  C          0.73702860       0.12403000       0.84786100
    51  C          0.73702860       0.37597000       0.34786100
    52  C          0.26297140       0.87597000       0.15213900
    53  H          0.26080000       0.67830000       0.71330000
    54  H          0.73920000       0.17830000       0.78670000
    55  H          0.73920000       0.32170000       0.28670000
    56  H          0.26080000       0.82170000       0.21330000
    57  C          0.25449140       0.34724000       0.37658900
    58  C          0.74550860       0.84724000       0.12341100
    59  C          0.74550860       0.65276000       0.62341100
    60  C          0.25449140       0.15276000       0.87658900
