data_PIMBAP07
_symmetry_space_group_name_H-M    'P1'
_symmetry_Int_Tables_number       1
loop_
_symmetry_equiv_pos_site_id
_symmetry_equiv_pos_as_xyz
1 x,y,z
_cell_length_a                   9.9972
_cell_length_b                   3.7541
_cell_length_c                   15.3623
_cell_angle_alpha                90.0
_cell_angle_beta                 106.313
_cell_angle_gamma                90.0
loop_
_atom_site_label
_atom_site_type_symbol
_atom_site_fract_x
_atom_site_fract_y
_atom_site_fract_z
     1  C          0.35224140       0.27234000       0.40230100
     2  C          0.64775860       0.77234000       0.09769900
     3  C          0.64775860       0.72766000       0.59769900
     4  C          0.35224140       0.22766000       0.90230100
     5  C          0.24359140       0.42744000       0.33117900
     6  C          0.75640860       0.92744000       0.16882100
     7  C          0.75640860       0.57256000       0.66882100
     8  C          0.24359140       0.07256000       0.83117900
     9  C          0.13334150       0.59264000       0.35085100
    10  C          0.86665850       0.09264000       0.14914900
    11  C          0.86665850       0.40736000       0.64914900
    12  C          0.13334150       0.90736000       0.85085100
    13  H          0.06120000       0.69230000       0.30300000
    14  H          0.93880000       0.19230000       0.19700000
    15  H          0.93880000       0.30770000       0.69700000
    16  H          0.06120000       0.80770000       0.80300000
    17  C          0.12520150       0.61734000       0.44013100
    18  C          0.87479850       0.11734000       0.05986900
    19  C          0.87479850       0.38266000       0.55986900
    20  C          0.12520150       0.88266000       0.94013100
    21  H          0.04820000       0.73080000       0.45330000
    22  H          0.95180000       0.23080000       0.04670000
    23  H          0.95180000       0.26920000       0.54670000
    24  H          0.04820000       0.76920000       0.95330000
    25  C          0.23038150       0.47474000       0.50780100
    26  C          0.76961850      -0.02526000      -0.00780100
    27  C          0.76961850       0.52526000       0.49219900
    28  C          0.23038150       0.02526000       0.00780100
    29  H          0.22750000       0.49170000       0.56900000
    30  H          0.77250000      -0.00830000       0.93100000
    31  H          0.77250000       0.50830000       0.43100000
    32  H          0.22750000       0.00830000       0.06900000
    33  C          0.25236150       0.41534000       0.23561100
    34  C          0.74763850       0.91534000       0.26438900
    35  C          0.74763850       0.58466000       0.76438900
    36  C          0.25236150       0.08466000       0.73561100
    37  N          0.33889120       0.30904000       0.48845800
    38  N          0.66110880       0.80904000       0.01154200
    39  N          0.66110880       0.69096000       0.51154200
    40  N          0.33889120       0.19096000       0.98845800
    41  H          0.40480000       0.21940000       0.53380000
    42  H          0.59520000       0.71940000       0.96620000
    43  H          0.59520000       0.78060000       0.46620000
    44  H          0.40480000       0.28060000       0.03380000
    45  O          0.36517110       0.26263000       0.22257700
    46  O          0.63482890       0.76263000       0.27742300
    47  O          0.63482890       0.73737000       0.77742300
    48  O          0.36517110       0.23737000       0.72257700
    49  H          0.41790000       0.19520000       0.27260000
    50  H          0.58210000       0.69520000       0.22740000
    51  H          0.58210000       0.80480000       0.72740000
    52  H          0.41790000       0.30480000       0.77260000
    53  O          0.16204110       0.54013000       0.17263700
    54  O          0.83795890       0.04013000       0.32736300
    55  O          0.83795890       0.45987000       0.82736300
    56  O          0.16204110       0.95987000       0.67263700
    57  O          0.45649100       0.10973000       0.39036700
    58  O          0.54350900       0.60973000       0.10963300
    59  O          0.54350900       0.89027000       0.60963300
    60  O          0.45649100       0.39027000       0.89036700
