data_PIMBAP04
_symmetry_space_group_name_H-M    'P1'
_symmetry_Int_Tables_number       1
loop_
_symmetry_equiv_pos_site_id
_symmetry_equiv_pos_as_xyz
1 x,y,z
_cell_length_a                   3.64001
_cell_length_b                   11.5843
_cell_length_c                   13.5653
_cell_angle_alpha                90.0
_cell_angle_beta                 94.6401
_cell_angle_gamma                90.0
loop_
_atom_site_label
_atom_site_type_symbol
_atom_site_fract_x
_atom_site_fract_y
_atom_site_fract_z
     1  C          0.56334000       0.25484140       0.33937120
     2  C          0.93666000       0.75484140       0.16062880
     3  C          0.43666000       0.74515860       0.66062880
     4  C          0.06334000       0.24515860       0.83937120
     5  C          0.41244000       0.18122140       0.41096120
     6  C          0.08756000       0.68122140       0.08903880
     7  C          0.58756000       0.81877860       0.58903880
     8  C          0.91244000       0.31877860       0.91096120
     9  C          0.31414000       0.06996140       0.38714120
    10  C          0.18586000       0.56996140       0.11285880
    11  C          0.68586000       0.93003860       0.61285880
    12  C          0.81414000       0.43003860       0.88714120
    13  H          0.21530000       0.02220000       0.43540000
    14  H          0.28470000       0.52220000       0.06460000
    15  H          0.78470000       0.97780000       0.56460000
    16  H          0.71530000       0.47780000       0.93540000
    17  C          0.35684000       0.02535150       0.29270120
    18  C          0.14316000       0.52535150       0.20729880
    19  C          0.64316000       0.97464850       0.70729880
    20  C          0.85684000       0.47464850       0.79270120
    21  H          0.29370000       0.94760000       0.27680000
    22  H          0.20630000       0.44760000       0.22320000
    23  H          0.70630000       0.05240000       0.72320000
    24  H          0.79370000       0.55240000       0.77680000
    25  C          0.49134000       0.09673150       0.22447120
    26  C          0.00866000       0.59673150       0.27552880
    27  C          0.50866000       0.90326850       0.77552880
    28  C         -0.00866000       0.40326850       0.72447120
    29  H          0.52010000       0.06850000       0.15980000
    30  H         -0.02010000       0.56850000       0.34020000
    31  H          0.47990000       0.93150000       0.84020000
    32  H          0.02010000       0.43150000       0.65980000
    33  C          0.36014000       0.22936150       0.51047120
    34  C          0.13986000       0.72936150       0.98952880
    35  C          0.63986000       0.77063850       0.48952880
    36  C          0.86014000       0.27063850       0.01047120
    37  N          0.58464000       0.20702130       0.24719100
    38  N          0.91536000       0.70702130       0.25280900
    39  N          0.41536000       0.79297870       0.75280900
    40  N          0.08464000       0.29297870       0.74719100
    41  H          0.66360000       0.25080000       0.20030000
    42  H          0.83640000       0.75080000       0.29970000
    43  H          0.33640000       0.74920000       0.79970000
    44  H          0.16360000       0.24920000       0.70030000
    45  O          0.46194000       0.33727100       0.52644900
    46  O          0.03806000       0.83727100       0.97355100
    47  O          0.53806000       0.66272900       0.47355100
    48  O         -0.03806000       0.16272900       0.02644900
    49  H          0.54450000       0.36440000       0.47520000
    50  H          0.95550000       0.86440000       0.02480000
    51  H          0.45550000       0.63560000       0.52480000
    52  H          0.04450000       0.13560000       0.97520000
    53  O          0.22463000       0.17228100       0.57449800
    54  O          0.27537000       0.67228100       0.92550200
    55  O          0.77537000       0.82771900       0.42550200
    56  O          0.72463000       0.32771900       0.07449800
    57  O          0.67133000       0.35672100       0.35588900
    58  O          0.82867000       0.85672100       0.14411100
    59  O          0.32867000       0.64327900       0.64411100
    60  O          0.17133000       0.14327900       0.85588900
