data_POKLUY02
_symmetry_space_group_name_H-M    'P1'
_symmetry_Int_Tables_number       1
loop_
_symmetry_equiv_pos_site_id
_symmetry_equiv_pos_as_xyz
1 x,y,z
_cell_length_a                   11.39944
_cell_length_b                   8.55573
_cell_length_c                   13.29765
_cell_angle_alpha                90.0
_cell_angle_beta                 91.45801
_cell_angle_gamma                90.0
loop_
_atom_site_label
_atom_site_type_symbol
_atom_site_fract_x
_atom_site_fract_y
_atom_site_fract_z
     1  S          0.15676300       0.74826400       0.33341200
     2  S          0.84323700       0.24826400       0.16658800
     3  S          0.84323700       0.25173600       0.66658800
     4  S          0.15676300       0.75173600       0.83341200
     5  O          0.12196900       0.58895110       0.30637800
     6  O          0.87803100       0.08895110       0.19362200
     7  O          0.87803100       0.41104890       0.69362200
     8  O          0.12196900       0.91104890       0.80637800
     9  O          0.18145100       0.76776120       0.44008800
    10  O          0.81854900       0.26776120       0.05991200
    11  O          0.81854900       0.23223880       0.55991200
    12  O          0.18145100       0.73223880       0.94008800
    13  O          0.07365900       0.86291120       0.29220800
    14  O          0.92634100       0.36291120       0.20779200
    15  O          0.92634100       0.13708880       0.70779200
    16  O          0.07365900       0.63708880       0.79220800
    17  C          0.28929120       0.78385160       0.27092100
    18  C          0.71070880       0.28385160       0.22907900
    19  C          0.71070880       0.21614840       0.72907900
    20  C          0.28929120       0.71614840       0.77092100
    21  C          0.29790130       0.73985170       0.17109110
    22  C          0.70209870       0.23985170       0.32890890
    23  C          0.70209870       0.26014830       0.82890890
    24  C          0.29790130       0.76014830       0.67109110
    25  H          0.23448600       0.68761200       0.13775700
    26  H          0.76551400       0.18761200       0.36224300
    27  H          0.76551400       0.31238800       0.86224300
    28  H          0.23448600       0.81238800       0.63775700
    29  C          0.39969140       0.77255190       0.12015120
    30  C          0.60030860       0.27255190       0.37984880
    31  C          0.60030860       0.22744810       0.87984880
    32  C          0.39969140       0.72744810       0.62015120
    33  H          0.40546600       0.74201000       0.05176700
    34  H          0.59453400       0.24201000       0.44823300
    35  H          0.59453400       0.25799000       0.94823300
    36  H          0.40546600       0.75799000       0.55176700
    37  C          0.49350150       0.84932000       0.16745150
    38  C          0.50649850       0.34932000       0.33254850
    39  C          0.50649850       0.15068000       0.83254850
    40  C          0.49350150       0.65068000       0.66745150
    41  C          0.48213160       0.89443000       0.26705150
    42  C          0.51786840       0.39443000       0.23294850
    43  C          0.51786840       0.10557000       0.73294850
    44  C          0.48213160       0.60557000       0.76705150
    45  H          0.54506200       0.94772700       0.30029300
    46  H          0.45493800       0.44772700       0.19970700
    47  H          0.45493800       0.05227300       0.69970700
    48  H          0.54506200       0.55227300       0.80029300
    49  C          0.38082150       0.86312000       0.31899120
    50  C          0.61917850       0.36312000       0.18100880
    51  C          0.61917850       0.13688000       0.68100880
    52  C          0.38082150       0.63688000       0.81899120
    53  H          0.37417900       0.89566600       0.38690200
    54  H          0.62582100       0.39566600       0.11309800
    55  H          0.62582100       0.10433400       0.61309800
    56  H          0.37417900       0.60433400       0.88690200
    57  C          0.60440190       0.88193000       0.11202000
    58  C          0.39559810       0.38193000       0.38798000
    59  C          0.39559810       0.11807000       0.88798000
    60  C          0.60440190       0.61807000       0.61202000
    61  H          0.64562000       0.78342500       0.09991500
    62  H          0.35438000       0.28342500       0.40008500
    63  H          0.35438000       0.21657500       0.90008500
    64  H          0.64562000       0.71657500       0.59991500
    65  H          0.65503400       0.95132000       0.15255400
    66  H          0.34496600       0.45132000       0.34744600
    67  H          0.34496600       0.04868000       0.84744600
    68  H          0.65503400       0.54868000       0.65255400
    69  H          0.58474800       0.93216800       0.04756300
    70  H          0.41525200       0.43216800       0.45243700
    71  H          0.41525200       0.06783200       0.95243700
    72  H          0.58474800       0.56783200       0.54756300
    73  H          0.10530000       0.44930000       0.41551600
    74  H          0.89470000       0.94930000       0.08448400
    75  H          0.89470000       0.55070000       0.58448400
    76  H          0.10530000       0.05070000       0.91551600
    77  H          0.03330000       0.25530000       0.31420000
    78  H          0.96670000       0.75530000       0.18580000
    79  H          0.96670000       0.74470000       0.68580000
    80  H          0.03330000       0.24470000       0.81420000
    81  H          0.05830000       0.08601400       0.34220000
    82  H          0.94170000       0.58601400       0.15780000
    83  H          0.94170000       0.91398600       0.65780000
    84  H          0.05830000       0.41398600       0.84220000
    85  N          0.11769100       0.38341130       0.46551900
    86  N          0.88230900       0.88341130       0.03448100
    87  N          0.88230900       0.61658870       0.53448100
    88  N          0.11769100       0.11658870       0.96551900
    89  N          0.06082130       0.18557160       0.35759100
    90  N          0.93917870       0.68557160       0.14240900
    91  N          0.93917870       0.81442840       0.64240900
    92  N          0.06082130       0.31442840       0.85759100
    93  C          0.10420120       0.22953150       0.44665100
    94  C          0.89579880       0.72953150       0.05334900
    95  C          0.89579880       0.77046850       0.55334900
    96  C          0.10420120       0.27046850       0.94665100
    97  C          0.13835130       0.12332160       0.52314110
    98  C          0.86164870       0.62332160       0.97685890
    99  C          0.86164870       0.87667840       0.47685890
   100  C          0.13835130       0.37667840       0.02314110
   101  H          0.13183500       0.01394200       0.51205200
   102  H          0.86816500       0.51394200       0.98794800
   103  H          0.86816500      -0.01394200       0.48794800
   104  H          0.13183500       0.48605800       0.01205200
   105  C          0.18081140       0.17885180       0.61322110
   106  C          0.81918860       0.67885180       0.88677890
   107  C          0.81918860       0.82114820       0.38677890
   108  C          0.18081140       0.32114820       0.11322110
   109  H          0.20232500       0.10753100       0.66525200
   110  H          0.79767500       0.60753100       0.83474800
   111  H          0.79767500       0.89246900       0.33474800
   112  H          0.20232500       0.39246900       0.16525200
   113  C          0.19306150       0.34069180       0.62982110
   114  C          0.80693850       0.84069180       0.87017890
   115  C          0.80693850       0.65930820       0.37017890
   116  C          0.19306150       0.15930820       0.12982110
   117  H          0.22298600       0.37953800       0.69229600
   118  H          0.77701400       0.87953800       0.80770400
   119  H          0.77701400       0.62046200       0.30770400
   120  H          0.22298600       0.12046200       0.19229600
   121  C          0.16116130       0.43922170       0.55465110
   122  C          0.83883870       0.93922170       0.94534890
   123  C          0.83883870       0.56077830       0.44534890
   124  C          0.16116130       0.06077830       0.05465110
   125  H          0.16919000       0.54878200       0.56415300
   126  H          0.83081000       0.04878200       0.93584700
   127  H          0.83081000       0.45121800       0.43584700
   128  H          0.16919000       0.95121800       0.06415300
