data_POKLUY01
_symmetry_space_group_name_H-M    'P1'
_symmetry_Int_Tables_number       1
loop_
_symmetry_equiv_pos_site_id
_symmetry_equiv_pos_as_xyz
1 x,y,z
_cell_length_a                   12.72459
_cell_length_b                   13.893414
_cell_length_c                   14.584712
_cell_angle_alpha                90.0
_cell_angle_beta                 90.0
_cell_angle_gamma                90.0
loop_
_atom_site_label
_atom_site_type_symbol
_atom_site_fract_x
_atom_site_fract_y
_atom_site_fract_z
     1  S          0.50472400       0.82361400       0.39935300
     2  S          0.00472400       0.67638600       0.60064700
     3  S          0.49527600       0.32361400       0.10064700
     4  S         -0.00472400       0.17638600       0.89935300
     5  S          0.49527600       0.17638600       0.60064700
     6  S         -0.00472400       0.32361400       0.39935300
     7  S          0.50472400       0.67638600       0.89935300
     8  S          0.00472400       0.82361400       0.10064700
     9  O          0.49410110       0.73829100       0.34176100
    10  O         -0.00589890       0.76170900       0.65823900
    11  O          0.50589890       0.23829100       0.15823900
    12  O          0.00589890       0.26170900       0.84176100
    13  O          0.50589890       0.26170900       0.65823900
    14  O          0.00589890       0.23829100       0.34176100
    15  O          0.49410110       0.76170900       0.84176100
    16  O         -0.00589890       0.73829100       0.15823900
    17  O          0.45390140       0.81053110       0.48783100
    18  O          0.95390140       0.68946890       0.51216900
    19  O          0.54609860       0.31053110       0.01216900
    20  O          0.04609860       0.18946890       0.98783100
    21  O          0.54609860       0.18946890       0.51216900
    22  O          0.04609860       0.31053110       0.48783100
    23  O          0.45390140       0.68946890       0.98783100
    24  O          0.95390140       0.81053110       0.01216900
    25  O          0.61188120       0.85774140       0.40678130
    26  O          0.11188120       0.64225860       0.59321870
    27  O          0.38811880       0.35774140       0.09321870
    28  O          0.88811880       0.14225860       0.90678130
    29  O          0.38811880       0.14225860       0.59321870
    30  O          0.88811880       0.35774140       0.40678130
    31  O          0.61188120       0.64225860       0.90678130
    32  O          0.11188120       0.85774140       0.09321870
    33  C          0.43437130       0.91656120       0.34396110
    34  C          0.93437130       0.58343880       0.65603890
    35  C          0.56562870       0.41656120       0.15603890
    36  C          0.06562870       0.08343880       0.84396110
    37  C          0.56562870       0.08343880       0.65603890
    38  C          0.06562870       0.41656120       0.34396110
    39  C          0.43437130       0.58343880       0.84396110
    40  C          0.93437130       0.91656120       0.15603890
    41  C          0.45618160       0.01218140       0.36483140
    42  C          0.95618160       0.48781860       0.63516860
    43  C          0.54381840       0.51218140       0.13516860
    44  C          0.04381840       0.98781860       0.86483140
    45  C          0.54381840       0.98781860       0.63516860
    46  C          0.04381840       0.51218140       0.36483140
    47  C          0.45618160       0.48781860       0.86483140
    48  C          0.95618160       0.01218140       0.13516860
    49  H          0.51040000       0.02740000       0.40500000
    50  H          0.01040000       0.47260000       0.59500000
    51  H          0.48960000       0.52740000       0.09500000
    52  H         -0.01040000       0.97260000       0.90500000
    53  H          0.48960000       0.97260000       0.59500000
    54  H         -0.01040000       0.52740000       0.40500000
    55  H          0.51040000       0.47260000       0.90500000
    56  H          0.01040000       0.02740000       0.09500000
    57  C          0.39689180       0.08409150       0.32557150
    58  C          0.89689180       0.41590850       0.67442850
    59  C          0.60310820       0.58409150       0.17442850
    60  C          0.10310820       0.91590850       0.82557150
    61  C          0.60310820       0.91590850       0.67442850
    62  C          0.10310820       0.58409150       0.32557150
    63  C          0.39689180       0.41590850       0.82557150
    64  C          0.89689180       0.08409150       0.17442850
    65  H          0.41250000       0.14790000       0.33940000
    66  H          0.91250000       0.35210000       0.66060000
    67  H          0.58750000       0.64790000       0.16060000
    68  H          0.08750000       0.85210000       0.83940000
    69  H          0.58750000       0.85210000       0.66060000
    70  H          0.08750000       0.64790000       0.33940000
    71  H          0.41250000       0.35210000       0.83940000
    72  H          0.91250000       0.14790000       0.16060000
    73  C          0.31447160       0.06434150       0.26599140
    74  C          0.81447160       0.43565850       0.73400860
    75  C          0.68552840       0.56434150       0.23400860
    76  C          0.18552840       0.93565850       0.76599140
    77  C          0.68552840       0.93565850       0.73400860
    78  C          0.18552840       0.56434150       0.26599140
    79  C          0.31447160       0.43565850       0.76599140
    80  C          0.81447160       0.06434150       0.23400860
    81  C          0.25092000       0.14462000       0.22490190
    82  C          0.75092000       0.35538000       0.77509810
    83  C          0.74908000       0.64462000       0.27509810
    84  C          0.24908000       0.85538000       0.72490190
    85  C          0.74908000       0.85538000       0.77509810
    86  C          0.24908000       0.64462000       0.22490190
    87  C          0.25092000       0.35538000       0.72490190
    88  C          0.75092000       0.14462000       0.27509810
    89  H          0.21100000       0.12040000       0.17400000
    90  H          0.71100000       0.37960000       0.82600000
    91  H          0.78900000       0.62040000       0.32600000
    92  H          0.28900000       0.87960000       0.67400000
    93  H          0.78900000       0.87960000       0.82600000
    94  H          0.28900000       0.62040000       0.17400000
    95  H          0.21100000       0.37960000       0.67400000
    96  H          0.71100000       0.12040000       0.32600000
    97  H          0.29710000       0.19460000       0.20410000
    98  H          0.79710000       0.30540000       0.79590000
    99  H          0.70290000       0.69460000       0.29590000
   100  H          0.20290000       0.80540000       0.70410000
   101  H          0.70290000       0.80540000       0.79590000
   102  H          0.20290000       0.69460000       0.20410000
   103  H          0.29710000       0.30540000       0.70410000
   104  H          0.79710000       0.19460000       0.29590000
   105  H          0.20390000       0.17000000       0.27030000
   106  H          0.70390000       0.33000000       0.72970000
   107  H          0.79610000       0.67000000       0.22970000
   108  H          0.29610000       0.83000000       0.77030000
   109  H          0.79610000       0.83000000       0.72970000
   110  H          0.29610000       0.67000000       0.27030000
   111  H          0.20390000       0.33000000       0.77030000
   112  H          0.70390000       0.17000000       0.22970000
   113  C          0.35295140       0.89531140       0.28407120
   114  C          0.85295140       0.60468860       0.71592880
   115  C          0.64704860       0.39531140       0.21592880
   116  C          0.14704860       0.10468860       0.78407120
   117  C          0.64704860       0.10468860       0.71592880
   118  C          0.14704860       0.39531140       0.28407120
   119  C          0.35295140       0.60468860       0.78407120
   120  C          0.85295140       0.89531140       0.21592880
   121  H          0.33810000       0.83160000       0.26930000
   122  H          0.83810000       0.66840000       0.73070000
   123  H          0.66190000       0.33160000       0.23070000
   124  H          0.16190000       0.16840000       0.76930000
   125  H          0.66190000       0.16840000       0.73070000
   126  H          0.16190000       0.33160000       0.26930000
   127  H          0.33810000       0.66840000       0.76930000
   128  H          0.83810000       0.83160000       0.23070000
   129  C          0.29364150       0.96908150       0.24615140
   130  C          0.79364150       0.53091850       0.75384860
   131  C          0.70635850       0.46908150       0.25384860
   132  C          0.20635850       0.03091850       0.74615140
   133  C          0.70635850       0.03091850       0.75384860
   134  C          0.20635850       0.46908150       0.24615140
   135  C          0.29364150       0.53091850       0.74615140
   136  C          0.79364150       0.96908150       0.25384860
   137  H          0.23870000       0.95400000       0.20660000
   138  H          0.73870000       0.54600000       0.79340000
   139  H          0.76130000       0.45400000       0.29340000
   140  H          0.26130000       0.04600000       0.70660000
   141  H          0.76130000       0.04600000       0.79340000
   142  H          0.26130000       0.45400000       0.20660000
   143  H          0.23870000       0.54600000       0.70660000
   144  H          0.73870000       0.95400000       0.29340000
   145  N          0.30501150       0.65335150       0.49877150
   146  N          0.80501150       0.84664850       0.50122850
   147  N          0.69498850       0.15335150       0.00122850
   148  N          0.19498850       0.34664850      -0.00122850
   149  N          0.69498850       0.34664850       0.50122850
   150  N          0.19498850       0.15335150       0.49877150
   151  N          0.30501150       0.84664850      -0.00122850
   152  N          0.80501150       0.65335150       0.00122850
   153  N          0.42084120       0.56594130       0.41033100
   154  N          0.92084120       0.93405870       0.58966900
   155  N          0.57915880       0.06594130       0.08966900
   156  N          0.07915880       0.43405870       0.91033100
   157  N          0.57915880       0.43405870       0.58966900
   158  N          0.07915880       0.06594130       0.41033100
   159  N          0.42084120       0.93405870       0.91033100
   160  N          0.92084120       0.56594130       0.08966900
   161  C          0.33672130       0.56873150       0.46695120
   162  C          0.83672130       0.93126850       0.53304880
   163  C          0.66327870       0.06873150       0.03304880
   164  C          0.16327870       0.43126850       0.96695120
   165  C          0.66327870       0.43126850       0.53304880
   166  C          0.16327870       0.06873150       0.46695120
   167  C          0.33672130       0.93126850       0.96695120
   168  C          0.83672130       0.56873150       0.03304880
   169  C          0.46104170       0.48282160       0.37669140
   170  C          0.96104170       0.01717840       0.62330860
   171  C          0.53895830       0.98282160       0.12330860
   172  C          0.03895830       0.51717840       0.87669140
   173  C          0.53895830       0.51717840       0.62330860
   174  C          0.03895830       0.98282160       0.37669140
   175  C          0.46104170       0.01717840       0.87669140
   176  C          0.96104170       0.48282160       0.12330860
   177  H          0.51900000       0.48480000       0.33790000
   178  H          0.01900000       0.01520000       0.66210000
   179  H          0.48100000       0.98480000       0.16210000
   180  H          0.98100000       0.51520000       0.83790000
   181  H          0.48100000       0.51520000       0.66210000
   182  H          0.98100000       0.98480000       0.33790000
   183  H          0.51900000       0.01520000       0.83790000
   184  H          0.01900000       0.48480000       0.16210000
   185  C          0.41802000       0.39715180       0.39876160
   186  C          0.91802000       0.10284820       0.60123840
   187  C          0.58198000       0.89715180       0.10123840
   188  C          0.08198000       0.60284820       0.89876160
   189  C          0.58198000       0.60284820       0.60123840
   190  C          0.08198000       0.89715180       0.39876160
   191  C          0.41802000       0.10284820       0.89876160
   192  C          0.91802000       0.39715180       0.10123840
   193  H          0.44630000       0.33980000       0.37700000
   194  H          0.94630000       0.16020000       0.62300000
   195  H          0.55370000       0.83980000       0.12300000
   196  H          0.05370000       0.66020000       0.87700000
   197  H          0.55370000       0.66020000       0.62300000
   198  H          0.05370000       0.83980000       0.37700000
   199  H          0.44630000       0.16020000       0.87700000
   200  H          0.94630000       0.33980000       0.12300000
   201  C          0.32869180       0.39750180       0.45580160
   202  C          0.82869180       0.10249820       0.54419840
   203  C          0.67130820       0.89750180       0.04419840
   204  C          0.17130820       0.60249820       0.95580160
   205  C          0.67130820       0.60249820       0.54419840
   206  C          0.17130820       0.89750180       0.45580160
   207  C          0.32869180       0.10249820       0.95580160
   208  C          0.82869180       0.39750180       0.04419840
   209  H          0.29690000       0.33940000       0.47110000
   210  H          0.79690000       0.16060000       0.52890000
   211  H          0.70310000       0.83940000       0.02890000
   212  H          0.20310000       0.66060000       0.97110000
   213  H          0.70310000       0.66060000       0.52890000
   214  H          0.20310000       0.83940000       0.47110000
   215  H          0.29690000       0.16060000       0.97110000
   216  H          0.79690000       0.33940000       0.02890000
   217  C          0.28809160       0.48073170       0.48890150
   218  C          0.78809160       0.01926830       0.51109850
   219  C          0.71190840       0.98073170       0.01109850
   220  C          0.21190840       0.51926830       0.98890150
   221  C          0.71190840       0.51926830       0.51109850
   222  C          0.21190840       0.98073170       0.48890150
   223  C          0.28809160       0.01926830       0.98890150
   224  C          0.78809160       0.48073170       0.01109850
   225  H          0.22850000       0.47970000       0.52580000
   226  H          0.72850000       0.02030000       0.47420000
   227  H          0.77150000       0.97970000       0.97420000
   228  H          0.27150000       0.52030000       0.02580000
   229  H          0.77150000       0.52030000       0.47420000
   230  H          0.27150000       0.97970000       0.52580000
   231  H          0.22850000       0.02030000       0.02580000
   232  H          0.72850000       0.47970000       0.97420000
   233  H          0.45011700       0.62161700       0.39111300
   234  H          0.95011700       0.87838300       0.60888700
   235  H          0.54988300       0.12161700       0.10888700
   236  H          0.04988300       0.37838300       0.89111300
   237  H          0.54988300       0.37838300       0.60888700
   238  H          0.04988300       0.12161700       0.39111300
   239  H          0.45011700       0.87838300       0.89111300
   240  H          0.95011700       0.62161700       0.10888700
   241  H          0.23920000       0.65420000       0.53201800
   242  H          0.73920000       0.84580000       0.46798200
   243  H          0.76080000       0.15420000       0.96798200
   244  H          0.26080000       0.34580000       0.03201800
   245  H          0.76080000       0.34580000       0.46798200
   246  H          0.26080000       0.15420000       0.53201800
   247  H          0.23920000       0.84580000       0.03201800
   248  H          0.73920000       0.65420000       0.96798200
   249  H          0.34420000       0.70220000       0.49441800
   250  H          0.84420000       0.79780000       0.50558200
   251  H          0.65580000       0.20220000       0.00558200
   252  H          0.15580000       0.29780000      -0.00558200
   253  H          0.65580000       0.29780000       0.50558200
   254  H          0.15580000       0.20220000       0.49441800
   255  H          0.34420000       0.79780000      -0.00558200
   256  H          0.84420000       0.70220000       0.00558200
