data_POKLUY
_symmetry_space_group_name_H-M    'P1'
_symmetry_Int_Tables_number       1
loop_
_symmetry_equiv_pos_site_id
_symmetry_equiv_pos_as_xyz
1 x,y,z
_cell_length_a                   8.58037
_cell_length_b                   6.41935
_cell_length_c                   23.277718
_cell_angle_alpha                90.0
_cell_angle_beta                 100.0163
_cell_angle_gamma                90.0
loop_
_atom_site_label
_atom_site_type_symbol
_atom_site_fract_x
_atom_site_fract_y
_atom_site_fract_z
     1  C          0.23596170       0.39612000       0.45011600
     2  C          0.26403830       0.89612000       0.04988400
     3  C          0.76403830       0.60388000       0.54988400
     4  C          0.73596170       0.10388000       0.95011600
     5  C          0.11474170       0.54423000       0.43422700
     6  C          0.38525830       0.04423000       0.06577300
     7  C          0.88525830       0.45577000       0.56577300
     8  C          0.61474170       0.95577000       0.93422700
     9  H          0.01270000       0.51700000       0.44070000
    10  H          0.48730000       0.01700000       0.05930000
    11  H         -0.01270000       0.48300000       0.55930000
    12  H          0.51270000      -0.01700000       0.94070000
    13  C          0.14800190       0.72763000       0.40935800
    14  C          0.35199810       0.22763000       0.09064200
    15  C          0.85199810       0.27237000       0.59064200
    16  C          0.64800190       0.77237000       0.90935800
    17  H          0.06880000       0.82660000       0.39930000
    18  H          0.43120000       0.32660000       0.10070000
    19  H          0.93120000       0.17340000       0.60070000
    20  H          0.56880000       0.67340000       0.89930000
    21  C          0.30122000       0.76723000       0.39890800
    22  C          0.19878000       0.26723000       0.10109200
    23  C          0.69878000       0.23277000       0.60109200
    24  C          0.80122000       0.73277000       0.89890800
    25  H          0.32430000       0.89130000       0.38160000
    26  H          0.17570000       0.39130000       0.11840000
    27  H          0.67570000       0.10870000       0.61840000
    28  H          0.82430000       0.60870000       0.88160000
    29  C          0.41320190       0.62403000       0.41423800
    30  C          0.08679810       0.12403000       0.08576200
    31  C          0.58679810       0.37597000       0.58576200
    32  C          0.91320190       0.87597000       0.91423800
    33  H          0.51550000       0.64900000       0.40770000
    34  H         -0.01550000       0.14900000       0.09230000
    35  H          0.48450000       0.35100000       0.59230000
    36  H          0.01550000       0.85100000       0.90770000
    37  N          0.38004140       0.44352000       0.43902600
    38  N          0.11995860       0.94352000       0.06097400
    39  N          0.61995860       0.55648000       0.56097400
    40  N          0.88004140       0.05648000       0.93902600
    41  N          0.21222000       0.21552000       0.47489800
    42  N          0.28778000       0.71552000       0.02510200
    43  N          0.78778000       0.78448000       0.52510200
    44  N          0.71222000       0.28448000       0.97489800
    45  H          0.46020000       0.34530000       0.44729000
    46  H          0.03980000       0.84530000       0.05271000
    47  H          0.53980000       0.65470000       0.55271000
    48  H          0.96020000       0.15470000       0.94729000
    49  H          0.30171900       0.15030000       0.48549000
    50  H          0.19828100       0.65030000       0.01451000
    51  H          0.69828100       0.84970000       0.51451000
    52  H          0.80171900       0.34970000       0.98549000
    53  H          0.11320000       0.17040000       0.47791100
    54  H          0.38680000       0.67040000       0.02208900
    55  H          0.88680000       0.82960000       0.52208900
    56  H          0.61320000       0.32960000       0.97791100
    57  C          0.65266160       0.04622000       0.34960600
    58  C          0.84733840       0.54622000       0.15039400
    59  C          0.34733840       0.95378000       0.65039400
    60  C          0.15266160       0.45378000       0.84960600
    61  C          0.70289180       0.84758000       0.33930700
    62  C          0.79710820       0.34758000       0.16069300
    63  C          0.29710820       0.15242000       0.66069300
    64  C          0.20289180       0.65242000       0.83930700
    65  H          0.78120000       0.78400000       0.36620000
    66  H          0.71880000       0.28400000       0.13380000
    67  H          0.21880000       0.21600000       0.63380000
    68  H          0.28120000       0.71600000       0.86620000
    69  C          0.63692000       0.74297000       0.28898800
    70  C          0.86308000       0.24297000       0.21101200
    71  C          0.36308000       0.25703000       0.71101200
    72  C          0.13692000       0.75703000       0.78898800
    73  H          0.67290000       0.61010000       0.28230000
    74  H          0.82710000       0.11010000       0.21770000
    75  H          0.32710000       0.38990000       0.71770000
    76  H          0.17290000       0.88990000       0.78230000
    77  C          0.51912000       0.83137000       0.24864700
    78  C         -0.01912000       0.33137000       0.25135300
    79  C          0.48088000       0.16863000       0.75135300
    80  C          0.01912000       0.66863000       0.74864700
    81  C          0.47032000       0.03203000       0.25924700
    82  C          0.02968000       0.53203000       0.24075300
    83  C          0.52968000       0.96797000       0.74075300
    84  C          0.97032000       0.46797000       0.75924700
    85  H          0.39160000       0.09510000       0.23230000
    86  H          0.10840000       0.59510000       0.26770000
    87  H          0.60840000       0.90490000       0.76770000
    88  H          0.89160000       0.40490000       0.73230000
    89  C          0.53632000       0.13993000       0.30894700
    90  C          0.96368000       0.63993000       0.19105300
    91  C          0.46368000       0.86007000       0.69105300
    92  C          0.03632000       0.36007000       0.80894700
    93  H          0.50290000       0.27460000       0.31510000
    94  H         -0.00290000       0.77460000       0.18490000
    95  H          0.49710000       0.72540000       0.68490000
    96  H          0.00290000       0.22540000       0.81510000
    97  C          0.44493000       0.71296000       0.19476900
    98  C          0.05507000       0.21296000       0.30523100
    99  C          0.55507000       0.28704000       0.80523100
   100  C          0.94493000       0.78704000       0.69476900
   101  H          0.50350000       0.73910000       0.16390000
   102  H         -0.00350000       0.23910000       0.33610000
   103  H          0.49650000       0.26090000       0.83610000
   104  H          0.00350000       0.76090000       0.66390000
   105  H          0.33740000       0.75790000       0.18290000
   106  H          0.16260000       0.25790000       0.31710000
   107  H          0.66260000       0.24210000       0.81710000
   108  H          0.83740000       0.74210000       0.68290000
   109  H          0.44660000       0.56650000       0.20320000
   110  H          0.05340000       0.06650000       0.29680000
   111  H          0.55340000       0.43350000       0.79680000
   112  H          0.94660000       0.93350000       0.70320000
   113  O          0.60941120       0.12867190       0.45383500
   114  O          0.89058880       0.62867190       0.04616500
   115  O          0.39058880       0.87132810       0.54616500
   116  O          0.10941120       0.37132810       0.95383500
   117  O          0.73048140       0.39433180       0.40329600
   118  O          0.76951860       0.89433180       0.09670400
   119  O          0.26951860       0.60566820       0.59670400
   120  O          0.23048140       0.10566820       0.90329600
   121  O          0.87861120       0.08359180       0.43835500
   122  O          0.62138880       0.58359180       0.06164500
   123  O          0.12138880       0.91640820       0.56164500
   124  O          0.37861120       0.41640820       0.93835500
   125  S          0.72570400       0.17455600       0.41622116
   126  S          0.77429600       0.67455600       0.08377884
   127  S          0.27429600       0.82544400       0.58377884
   128  S          0.22570400       0.32544400       0.91622116
