data_POQPIX
_symmetry_space_group_name_H-M    'P1'
_symmetry_Int_Tables_number       1
loop_
_symmetry_equiv_pos_site_id
_symmetry_equiv_pos_as_xyz
1 x,y,z
_cell_length_a                   8.80156
_cell_length_b                   9.78266
_cell_length_c                   12.89098
_cell_angle_alpha                66.1551
_cell_angle_beta                 63.9151
_cell_angle_gamma                64.8421
loop_
_atom_site_label
_atom_site_type_symbol
_atom_site_fract_x
_atom_site_fract_y
_atom_site_fract_z
     1  Br         0.17981000       0.81901000       0.06711000
     2  Br         0.82019000       0.18099000       0.93289000
     3  C          0.59033000       0.38393000       0.08292000
     4  C          0.40967000       0.61607000       0.91708000
     5  C          0.44323000       0.53083000       0.11432000
     6  C          0.55677000       0.46917000       0.88568000
     7  C          0.36063000       0.63603000       0.03262000
     8  C          0.63937000       0.36397000       0.96738000
     9  O          0.65753000       0.28913000       0.16032000
    10  O          0.34247000       0.71087000       0.83968000
    11  O          0.40553000       0.54402000       0.21872000
    12  O          0.59447000       0.45598000       0.78128000
    13  H          0.49907000       0.45106000       0.29504000
    14  H          0.50093000       0.54894000       0.70496000
    15  Br         0.17361000       0.32471000       0.05121000
    16  Br         0.82639000       0.67529000       0.94879000
    17  C          0.56333000       0.96247000       0.88752000
    18  C          0.43667000       0.03753000       0.11248000
    19  C          0.41453000       0.11063000       0.91372000
    20  C          0.58547000       0.88937000       0.08628000
    21  C          0.35923000       0.14223000       0.02032000
    22  C          0.64077000       0.85777000       0.97968000
    23  O          0.60923000       0.94298000       0.78902000
    24  O          0.39077000       0.05702000       0.21098000
    25  O          0.34603000       0.20272000       0.82972000
    26  O          0.65397000       0.79728000       0.17028000
    27  H          0.39206000       0.15805000       0.76504000
    28  H          0.60794000       0.84195000       0.23496000
    29  C          0.56563000       0.29273000       0.48012000
    30  C          0.43437000       0.70727000       0.51988000
    31  C          0.65374000       0.27574000       0.55252000
    32  C          0.34626000       0.72426000       0.44748000
    33  C          0.78694000       0.34484000       0.50503000
    34  C          0.21306000       0.65516000       0.49497000
    35  C          0.83353000       0.42793000       0.38592000
    36  C          0.16647000       0.57207000       0.61408000
    37  C          0.73604000       0.44203000       0.32052000
    38  C          0.26396000       0.55797000       0.67948000
    39  C          0.42773000       0.21543000       0.52212000
    40  C          0.57227000       0.78457000       0.47788000
    41  C          0.37144000       0.19863000       0.44452000
    42  C          0.62856000       0.80137000       0.55548000
    43  C          0.24504000       0.12133000       0.49082000
    44  C          0.75496000       0.87867000       0.50918000
    45  C          0.17673000       0.05953000       0.61322000
    46  C          0.82327000       0.94047000       0.38678000
    47  C          0.24263000       0.07823000       0.68462000
    48  C          0.75737000       0.92177000       0.31538000
    49  C          0.98175000       0.50075000       0.32754000
    50  C          0.01825000       0.49925000       0.67246000
    51  C          0.04085000       0.97525000       0.66914000
    52  C          0.95915000       0.02475000       0.33086000
    53  N          0.60433000       0.37953000       0.36602000
    54  N          0.39567000       0.62047000       0.63398000
    55  N          0.36253000       0.15433000       0.64132000
    56  N          0.63747000       0.84567000       0.35868000
    57  H          0.62704000       0.21903000       0.63003000
    58  H          0.37296000       0.78097000       0.36997000
    59  H          0.84704000       0.33603000       0.55202000
    60  H          0.15296000       0.66397000       0.44798000
    61  H          0.75204000       0.49903000       0.24403000
    62  H          0.24796000       0.50097000       0.75597000
    63  H          0.41004000       0.24203000       0.36402000
    64  H          0.58996000       0.75797000       0.63598000
    65  H          0.19704000       0.11303000       0.44002000
    66  H          0.80296000       0.88697000       0.55998000
    67  H          0.21103000       0.03303000       0.76902000
    68  H          0.78897000       0.96697000       0.23098000
    69  H          0.97707000       0.56206000       0.26204000
    70  H          0.02293000       0.43794000       0.73796000
    71  H          0.08807000       0.41705000       0.31504000
    72  H          0.91193000       0.58295000       0.68496000
    73  H          0.99206000       0.52405000       0.37603000
    74  H          0.00794000       0.47595000       0.62397000
    75  H          0.06306000       0.90995000       0.72304000
    76  H          0.93694000       0.09005000       0.27696000
    77  H          0.92994000       0.04605000       0.69403000
    78  H          0.07006000       0.95395000       0.30597000
    79  H          0.02006000       0.96395000       0.62004000
    80  H          0.97994000       0.03605000       0.37996000
