data_POQPIX05
_symmetry_space_group_name_H-M    'P1'
_symmetry_Int_Tables_number       1
loop_
_symmetry_equiv_pos_site_id
_symmetry_equiv_pos_as_xyz
1 x,y,z
_cell_length_a                   4.88733
_cell_length_b                   8.15953
_cell_length_c                   11.86497
_cell_angle_alpha                108.5054
_cell_angle_beta                 91.1054
_cell_angle_gamma                98.4364
loop_
_atom_site_label
_atom_site_type_symbol
_atom_site_fract_x
_atom_site_fract_y
_atom_site_fract_z
     1  Br         0.87540150       0.17727100       0.44189700
     2  Br         0.12459850       0.82272900       0.55810300
     3  O          0.71045000       0.39353000       0.28617160
     4  O          0.28955000       0.60647000       0.71382840
     5  O          0.58985000       0.34783000       0.66572170
     6  O          0.41015000       0.65217000       0.33427830
     7  C          0.61945000       0.43783000       0.38627180
     8  C          0.38055000       0.56217000       0.61372820
     9  C          0.55385000       0.41453000       0.58484190
    10  C          0.44615000       0.58547000       0.41515810
    11  C          0.66395000       0.36013000       0.47462000
    12  C          0.33605000       0.63987000       0.52538000
    13  H          0.59120000       0.42430000       0.73230000
    14  H          0.40880000       0.57570000       0.26770000
    15  C         -0.00476000       0.23103000       0.00632000
    16  C          0.00476000       0.76897000      -0.00632000
    17  C          0.22276000       0.36083000       0.05322000
    18  C          0.77724000       0.63917000       0.94678000
    19  C          0.07895000       0.25143000       0.81762000
    20  C          0.92105000       0.74857000       0.18238000
    21  C          0.37564000       0.43152000       0.97864160
    22  C          0.62436000       0.56848000       0.02135840
    23  C          0.68004000       0.02914000       0.82903000
    24  C          0.31996000       0.97086000       0.17097000
    25  C          0.91875000       0.17293000       0.88612000
    26  C          0.08125000       0.82707000       0.11388000
    27  N          0.29731100       0.37757000       0.86204000
    28  N          0.70268900       0.62243000       0.13796000
    29  H          0.23315900       0.37906100       0.13732100
    30  H          0.76684100       0.62093900       0.86267900
    31  H          0.03131200       0.21367900       0.73336900
    32  H         -0.03131200       0.78632100       0.26663100
    33  H          0.63757400       0.02749300       0.74932300
    34  H          0.36242600       0.97250700       0.25067700
    35  H          0.72940400       0.91853500       0.82683000
    36  H          0.27059600       0.08146500       0.17317000
    37  H          0.52083000       0.04940900       0.87450600
    38  H          0.47917000       0.95059100       0.12549400
    39  H          0.88985700       0.18109300       0.05828300
    40  H          0.11014300       0.81890700       0.94171700
