data_POZYUB
_symmetry_space_group_name_H-M    'P1'
_symmetry_Int_Tables_number       1
loop_
_symmetry_equiv_pos_site_id
_symmetry_equiv_pos_as_xyz
1 x,y,z
_cell_length_a                   12.0664
_cell_length_b                   6.9973
_cell_length_c                   20.1057
_cell_angle_alpha                90.0
_cell_angle_beta                 98.872
_cell_angle_gamma                90.0
loop_
_atom_site_label
_atom_site_type_symbol
_atom_site_fract_x
_atom_site_fract_y
_atom_site_fract_z
     1  C          0.64758840       0.93027000       0.92512900
     2  C          0.35241160       0.43027000       0.57487100
     3  C          0.35241160       0.06973000       0.07487100
     4  C          0.64758840       0.56973000       0.42512900
     5  C          0.69600840       0.08563000       0.89657900
     6  C          0.30399160       0.58563000       0.60342100
     7  C          0.30399160       0.91437000       0.10342100
     8  C          0.69600840       0.41437000       0.39657900
     9  H          0.77503800       0.09338300       0.89848500
    10  H          0.22496200       0.59338300       0.60151500
    11  H          0.22496200       0.90661700       0.10151500
    12  H          0.77503800       0.40661700       0.39848500
    13  C          0.62701840       0.22743000       0.86554900
    14  C          0.37298160       0.72743000       0.63445100
    15  C          0.37298160       0.77257000       0.13445100
    16  C          0.62701840       0.27257000       0.36554900
    17  C          0.67254820       0.39273000       0.83725100
    18  C          0.32745180       0.89273000       0.66274900
    19  C          0.32745180       0.60727000       0.16274900
    20  C          0.67254820       0.10727000       0.33725100
    21  H          0.75156300       0.40573200       0.84042300
    22  H          0.24843700       0.90573200       0.65957700
    23  H          0.24843700       0.59426800       0.15957700
    24  H          0.75156300       0.09426800       0.34042300
    25  C          0.60473810       0.53033000       0.80617100
    26  C          0.39526190       0.03033000       0.69382900
    27  C          0.39526190       0.46967000       0.19382900
    28  C          0.60473810       0.96967000       0.30617100
    29  H          0.63688900       0.63758200       0.78735100
    30  H          0.36311100       0.13758200       0.71264900
    31  H          0.36311100       0.36241800       0.21264900
    32  H          0.63688900       0.86241800       0.28735100
    33  C          0.48650820       0.51713000       0.80117100
    34  C          0.51349180       0.01713000       0.69882900
    35  C          0.51349180       0.48287000       0.19882900
    36  C          0.48650820      -0.01713000       0.30117100
    37  H          0.44038200       0.61530300       0.77910900
    38  H          0.55961800       0.11530300       0.72089100
    39  H          0.55961800       0.38469700       0.22089100
    40  H          0.44038200       0.88469700       0.27910900
    41  C          0.43879820       0.36523000       0.82770100
    42  C          0.56120180       0.86523000       0.67229900
    43  C          0.56120180       0.63477000       0.17229900
    44  C          0.43879820       0.13477000       0.32770100
    45  H          0.35949100       0.35917400       0.82445900
    46  H          0.64050900       0.85917400       0.67554100
    47  H          0.64050900       0.64082600       0.17554100
    48  H          0.35949100       0.14082600       0.32445900
    49  C          0.50621840       0.21313000       0.86064900
    50  C          0.49378160       0.71313000       0.63935100
    51  C          0.49378160       0.78687000       0.13935100
    52  C          0.50621840       0.28687000       0.36064900
    53  C          0.45802840       0.05683000       0.88725100
    54  C          0.54197160       0.55683000       0.61274900
    55  C          0.54197160       0.94317000       0.11274900
    56  C          0.45802840       0.44317000       0.38725100
    57  H          0.37879600       0.04562800       0.88310900
    58  H          0.62120400       0.54562800       0.61689100
    59  H          0.62120400       0.95437200       0.11689100
    60  H          0.37879600       0.45437200       0.38310900
    61  C          0.52758830       0.91587000       0.92023900
    62  C          0.47241170       0.41587000       0.57976100
    63  C          0.47241170       0.08413000       0.07976100
    64  C          0.52758830       0.58413000       0.42023900
    65  N          0.70310850       0.78267000       0.95955900
    66  N          0.29689150       0.28267000       0.54044100
    67  N          0.29689150       0.21733000       0.04044100
    68  N          0.70310850       0.71733000       0.45955900
    69  N          0.49480850       0.75677000       0.95106900
    70  N          0.50519150       0.25677000       0.54893100
    71  N          0.50519150       0.24323000       0.04893100
    72  N          0.49480850       0.74323000       0.45106900
    73  S          0.60798500       0.64694100       0.98160300
    74  S          0.39201500       0.14694100       0.51839700
    75  S          0.39201500       0.35305900       0.01839700
    76  S          0.60798500       0.85305900       0.48160300
    77  C          0.07696160       0.20383000       0.76839100
    78  C          0.92303840       0.70383000       0.73160900
    79  C          0.92303840       0.79617000       0.23160900
    80  C          0.07696160       0.29617000       0.26839100
    81  C          0.09181170       0.20933000       0.70100100
    82  C          0.90818830       0.70933000       0.79899900
    83  C          0.90818830       0.79067000       0.29899900
    84  C          0.09181170       0.29067000       0.20100100
    85  H          0.16504800       0.21529000       0.68927200
    86  H          0.83495200       0.71529000       0.81072800
    87  H          0.83495200       0.78471000       0.31072800
    88  H          0.16504800       0.28471000       0.18927200
    89  C         -0.00203160       0.20603000       0.65113900
    90  C          0.00203160       0.70603000       0.84886100
    91  C          0.00203160       0.79397000       0.34886100
    92  C         -0.00203160       0.29397000       0.15113900
    93  C          0.00812000       0.21103000       0.58077110
    94  C         -0.00812000       0.71103000       0.91922890
    95  C         -0.00812000       0.78897000       0.41922890
    96  C          0.00812000       0.28897000       0.08077110
    97  H          0.08047800       0.21448400       0.56779200
    98  H          0.91952200       0.71448400       0.93220800
    99  H          0.91952200       0.78551600       0.43220800
   100  H          0.08047800       0.28551600       0.06779200
   101  C          0.91608000       0.21073000       0.53276110
   102  C          0.08392000       0.71073000       0.96723890
   103  C          0.08392000       0.78927000       0.46723890
   104  C          0.91608000       0.28927000       0.03276110
   105  H          0.92462400       0.21357300       0.48657800
   106  H          0.07537600       0.71357300       0.01342200
   107  H          0.07537600       0.78642700       0.51342200
   108  H          0.92462400       0.28642700       0.98657800
   109  C          0.80685810       0.20623000       0.55096100
   110  C          0.19314190       0.70623000       0.94903900
   111  C          0.19314190       0.79377000       0.44903900
   112  C          0.80685810       0.29377000       0.05096100
   113  H          0.74306400       0.20821000       0.51675100
   114  H          0.25693600       0.70821000       0.98324900
   115  H          0.25693600       0.79179000       0.48324900
   116  H          0.74306400       0.29179000       0.01675100
   117  C          0.79253830       0.19923000       0.61625100
   118  C          0.20746170       0.69923000       0.88374900
   119  C          0.20746170       0.80077000       0.38374900
   120  C          0.79253830       0.30077000       0.11625100
   121  H          0.71877500       0.19471500       0.62723500
   122  H          0.28122500       0.69471500       0.87276500
   123  H          0.28122500       0.80528500       0.37276500
   124  H          0.71877500       0.30528500       0.12723500
   125  C          0.88667840       0.19853000       0.66914900
   126  C          0.11332160       0.69853000       0.83085100
   127  C          0.11332160       0.80147000       0.33085100
   128  C          0.88667840       0.30147000       0.16914900
   129  C          0.87215840       0.19373000       0.73618100
   130  C          0.12784160       0.69373000       0.76381900
   131  C          0.12784160       0.80627000       0.26381900
   132  C          0.87215840       0.30627000       0.23618100
   133  H          0.79897900       0.18827700       0.74801500
   134  H          0.20102100       0.68827700       0.75198500
   135  H          0.20102100       0.81172300       0.25198500
   136  H          0.79897900       0.31172300       0.24801500
   137  C          0.96666840       0.19713000       0.78623900
   138  C          0.03333160       0.69713000       0.71376100
   139  C          0.03333160       0.80287000       0.21376100
   140  C          0.96666840       0.30287000       0.28623900
   141  N          0.15904150       0.20503000       0.82346900
   142  N          0.84095850       0.70503000       0.67653100
   143  N          0.84095850       0.79497000       0.17653100
   144  N          0.15904150       0.29497000       0.32346900
   145  N          0.96718850       0.19523000       0.85419800
   146  N          0.03281150       0.69523000       0.64580200
   147  N          0.03281150       0.80477000       0.14580200
   148  N          0.96718850       0.30477000       0.35419800
   149  S          0.09603500       0.19971800       0.88792300
   150  S          0.90396500       0.69971800       0.61207700
   151  S          0.90396500       0.80028200       0.11207700
   152  S          0.09603500       0.30028200       0.38792300
