data_POZYUB02
_symmetry_space_group_name_H-M    'P1'
_symmetry_Int_Tables_number       1
loop_
_symmetry_equiv_pos_site_id
_symmetry_equiv_pos_as_xyz
1 x,y,z
_cell_length_a                   9.9974
_cell_length_b                   12.1925
_cell_length_c                   7.1673
_cell_angle_alpha                90.0
_cell_angle_beta                 109.562
_cell_angle_gamma                90.0
loop_
_atom_site_label
_atom_site_type_symbol
_atom_site_fract_x
_atom_site_fract_y
_atom_site_fract_z
     1  C          0.70528190       0.07397150       0.39543000
     2  C          0.29471810       0.57397150       0.10457000
     3  C          0.29471810       0.92602850       0.60457000
     4  C          0.70528190       0.42602850       0.89543000
     5  C          0.58700180       0.01375140       0.28083000
     6  C          0.41299820       0.51375140       0.21917000
     7  C          0.41299820       0.98624860       0.71917000
     8  C          0.58700180       0.48624860       0.78083000
     9  H          0.59862300       0.94742500       0.21836500
    10  H          0.40137700       0.44742500       0.28163500
    11  H          0.40137700       0.05257500       0.78163500
    12  H          0.59862300       0.55257500       0.71836500
    13  C          0.45228180       0.05297150       0.26033000
    14  C          0.54771820       0.55297150       0.23967000
    15  C          0.54771820       0.94702850       0.73967000
    16  C          0.45228180       0.44702850       0.76033000
    17  C          0.32817190      -0.00490170       0.14283000
    18  C          0.67182810       0.49509830       0.35717000
    19  C          0.67182810       0.00490170       0.85717000
    20  C          0.32817190       0.50490170       0.64283000
    21  H          0.33813100       0.92903600       0.07839400
    22  H          0.66186900       0.42903600       0.42160600
    23  H          0.66186900       0.07096400       0.92160600
    24  H          0.33813100       0.57096400       0.57839400
    25  C          0.19672000       0.03311180       0.12213000
    26  C          0.80328000       0.53311180       0.37787000
    27  C          0.80328000       0.96688820       0.87787000
    28  C          0.19672000       0.46688820       0.62213000
    29  H          0.11559700      -0.00543400       0.04072500
    30  H          0.88440300       0.49456600       0.45927500
    31  H          0.88440300       0.00543400       0.95927500
    32  H          0.11559700       0.50543400       0.54072500
    33  C          0.17912000       0.13036180       0.22134000
    34  C          0.82088000       0.63036180       0.27866000
    35  C          0.82088000       0.86963820       0.77866000
    36  C          0.17912000       0.36963820       0.72134000
    37  H          0.08619700       0.15460100       0.20873600
    38  H          0.91380300       0.65460100       0.29126400
    39  H          0.91380300       0.84539900       0.79126400
    40  H          0.08619700       0.34539900       0.70873600
    41  C          0.29242000       0.18865170       0.33303000
    42  C          0.70758000       0.68865170       0.16697000
    43  C          0.70758000       0.81134830       0.66697000
    44  C          0.29242000       0.31134830       0.83303000
    45  H          0.27799800       0.25395500       0.39609700
    46  H          0.72200200       0.75395500       0.10390300
    47  H          0.72200200       0.74604500       0.60390300
    48  H          0.27799800       0.24604500       0.89609700
    49  C          0.43442000       0.15336150       0.35803000
    50  C          0.56558000       0.65336150       0.14197000
    51  C          0.56558000       0.84663850       0.64197000
    52  C          0.43442000       0.34663850       0.85803000
    53  C          0.55232000       0.21219150       0.47293000
    54  C          0.44768000       0.71219150       0.02707000
    55  C          0.44768000       0.78780850       0.52707000
    56  C          0.55232000       0.28780850       0.97293000
    57  H          0.54093400       0.27772200       0.53776900
    58  H          0.45906600       0.77772200       0.96223100
    59  H          0.45906600       0.72227800       0.46223100
    60  H          0.54093400       0.22227800       0.03776900
    61  C          0.68772000       0.17350150       0.49173000
    62  C          0.31228000       0.67350150       0.00827000
    63  C          0.31228000       0.82649850       0.50827000
    64  C          0.68772000       0.32649850      -0.00827000
    65  N          0.84322170       0.04671140       0.43093000
    66  N          0.15677830       0.54671140       0.06907000
    67  N          0.15677830       0.95328860       0.56907000
    68  N          0.84322170       0.45328860       0.93093000
    69  N          0.81395180       0.22051140       0.59883000
    70  N          0.18604820       0.72051140       0.90117000
    71  N          0.18604820       0.77948860       0.40117000
    72  N          0.81395180       0.27948860       0.09883000
    73  S          0.93469500       0.14089400       0.57260800
    74  S          0.06530500       0.64089400       0.92739200
    75  S          0.06530500       0.85910600       0.42739200
    76  S          0.93469500       0.35910600       0.07260800
