data_POZYUB04
_symmetry_space_group_name_H-M    'P1'
_symmetry_Int_Tables_number       1
loop_
_symmetry_equiv_pos_site_id
_symmetry_equiv_pos_as_xyz
1 x,y,z
_cell_length_a                   3.8332
_cell_length_b                   16.4195
_cell_length_c                   13.4105
_cell_angle_alpha                90.0
_cell_angle_beta                 104.252
_cell_angle_gamma                90.0
loop_
_atom_site_label
_atom_site_type_symbol
_atom_site_fract_x
_atom_site_fract_y
_atom_site_fract_z
     1  C          0.55814000       0.02282100       0.28126140
     2  C          0.44186000       0.52282100       0.21873860
     3  C          0.44186000       0.97717900       0.71873860
     4  C          0.55814000       0.47717900       0.78126140
     5  C          0.66984000       0.04546100       0.38442130
     6  C          0.33016000       0.54546100       0.11557870
     7  C          0.33016000       0.95453900       0.61557870
     8  C          0.66984000       0.45453900       0.88442130
     9  H          0.63070900       0.01013700       0.43672400
    10  H          0.36929100       0.51013700       0.06327600
    11  H          0.36929100       0.98986300       0.56327600
    12  H          0.63070900       0.48986300       0.93672400
    13  C          0.83894000       0.12005100       0.41012130
    14  C          0.16106000       0.62005100       0.08987870
    15  C          0.16106000       0.87994900       0.58987870
    16  C          0.83894000       0.37994900       0.91012130
    17  C         -0.03075000       0.14477110       0.51531130
    18  C          0.03075000       0.64477110       0.98468870
    19  C          0.03075000       0.85522890       0.48468870
    20  C         -0.03075000       0.35522890       0.01531130
    21  H          0.93191400       0.11032800       0.56867100
    22  H          0.06808600       0.61032800       0.93132900
    23  H          0.06808600       0.88967200       0.43132900
    24  H          0.93191400       0.38967200       0.06867100
    25  C          0.14355000       0.21605120       0.53970150
    26  C          0.85645000       0.71605120       0.96029850
    27  C          0.85645000       0.78394880       0.46029850
    28  C          0.14355000       0.28394880       0.03970150
    29  H          0.23579500       0.23018800       0.60995200
    30  H          0.76420500       0.73018800       0.89004800
    31  H          0.76420500       0.76981200       0.39004800
    32  H          0.23579500       0.26981200       0.10995200
    33  C          0.19115000       0.27052110       0.46126160
    34  C          0.80885000       0.77052110       0.03873840
    35  C          0.80885000       0.72947890       0.53873840
    36  C          0.19115000       0.22947890       0.96126160
    37  H          0.30973700       0.32109600       0.47976100
    38  H          0.69026300       0.82109600       0.02023900
    39  H          0.69026300       0.67890400       0.52023900
    40  H          0.30973700       0.17890400       0.97976100
    41  C          0.06895000       0.25084100       0.36085150
    42  C          0.93105000       0.75084100       0.13914850
    43  C          0.93105000       0.74915900       0.63914850
    44  C          0.06895000       0.24915900       0.86085150
    45  H          0.10004900       0.28827000       0.30972200
    46  H          0.89995100       0.78827000       0.19027800
    47  H          0.89995100       0.71173000       0.69027800
    48  H          0.10004900       0.21173000       0.80972200
    49  C          0.89294000       0.17451100       0.32992130
    50  C          0.10706000       0.67451100       0.17007870
    51  C          0.10706000       0.82548900       0.67007870
    52  C          0.89294000       0.32548900       0.82992130
    53  C          0.78004000       0.15219100       0.22710130
    54  C          0.21996000       0.65219100       0.27289870
    55  C          0.21996000       0.84780900       0.77289870
    56  C          0.78004000       0.34780900       0.72710130
    57  H          0.81473000       0.18790000       0.17464900
    58  H          0.18527000       0.68790000       0.32535100
    59  H          0.18527000       0.81210000       0.82535100
    60  H          0.81473000       0.31210000       0.67464900
    61  C          0.61484000       0.07669100       0.20174130
    62  C          0.38516000       0.57669100       0.29825870
    63  C          0.38516000       0.92330900       0.79825870
    64  C          0.61484000       0.42330900       0.70174130
    65  N          0.39744000       0.95164200       0.24324120
    66  N          0.60256000       0.45164200       0.25675880
    67  N          0.60256000       0.04835800       0.75675880
    68  N          0.39744000       0.54835800       0.74324120
    69  N          0.49734000       0.04483800       0.10556120
    70  N          0.50266000       0.54483800       0.39443880
    71  N          0.50266000       0.95516200       0.89443880
    72  N          0.49734000       0.45516200       0.60556120
    73  S          0.33581120       0.95667700       0.12037400
    74  S          0.66418880       0.45667700       0.37962600
    75  S          0.66418880       0.04332300       0.87962600
    76  S          0.33581120       0.54332300       0.62037400
