data_PRMDIN20
_symmetry_space_group_name_H-M    'P1'
_symmetry_Int_Tables_number       1
loop_
_symmetry_equiv_pos_site_id
_symmetry_equiv_pos_as_xyz
1 x,y,z
_cell_length_a                   11.1719
_cell_length_b                   9.2454
_cell_length_c                   3.588516
_cell_angle_alpha                90.0
_cell_angle_beta                 90.398
_cell_angle_gamma                90.0
loop_
_atom_site_label
_atom_site_type_symbol
_atom_site_fract_x
_atom_site_fract_y
_atom_site_fract_z
     1  N          0.13720000       0.37029000       0.94680000
     2  N          0.36280000       0.87029000       0.55320000
     3  N          0.86280000       0.62971000       0.05320000
     4  N          0.63720000       0.12971000       0.44680000
     5  N          0.01620000       0.18067000       0.22420000
     6  N          0.48380000       0.68067000       0.27580000
     7  N          0.98380000       0.81933000       0.77580000
     8  N          0.51620000       0.31933000       0.72420000
     9  C          0.02830000       0.31511500       0.09530000
    10  C          0.47170000       0.81511500       0.40470000
    11  C          0.97170000       0.68488500       0.90470000
    12  C          0.52830000       0.18488500       0.59530000
    13  H          0.96230000       0.37600000       0.10280000
    14  H          0.53770000       0.87600000       0.39720000
    15  H          0.03770000       0.62400000       0.89720000
    16  H          0.46230000       0.12400000       0.60280000
    17  C          0.11140000       0.09611000       0.20230000
    18  C          0.38860000       0.59611000       0.29770000
    19  C          0.88860000       0.90389000       0.79770000
    20  C          0.61140000       0.40389000       0.70230000
    21  H          0.10480000       0.00130000       0.28730000
    22  H          0.39520000       0.50130000       0.21270000
    23  H          0.89520000      -0.00130000       0.71270000
    24  H          0.60480000       0.49870000       0.78730000
    25  C          0.21540000       0.14111600       0.06420000
    26  C          0.28460000       0.64111600       0.43580000
    27  C          0.78460000       0.85888400       0.93580000
    28  C          0.71540000       0.35888400       0.56420000
    29  H          0.28030000       0.07960000       0.05040000
    30  H          0.21970000       0.57960000       0.44960000
    31  H          0.71970000       0.92040000       0.94960000
    32  H          0.78030000       0.42040000       0.55040000
    33  C          0.22140000       0.28091100       0.94070000
    34  C          0.27860000       0.78091100       0.55930000
    35  C          0.77860000       0.71908900       0.05930000
    36  C          0.72140000       0.21908900       0.44070000
    37  H          0.29380000       0.31210000       0.84550000
    38  H          0.20620000       0.81210000       0.65450000
    39  H          0.70620000       0.68790000       0.15450000
    40  H          0.79380000       0.18790000       0.34550000
