data_PRMDIN18
_symmetry_space_group_name_H-M    'P1'
_symmetry_Int_Tables_number       1
loop_
_symmetry_equiv_pos_site_id
_symmetry_equiv_pos_as_xyz
1 x,y,z
_cell_length_a                   22.09612
_cell_length_b                   9.5075
_cell_length_c                   3.641515
_cell_angle_alpha                90.0
_cell_angle_beta                 90.0
_cell_angle_gamma                95.056
loop_
_atom_site_label
_atom_site_type_symbol
_atom_site_fract_x
_atom_site_fract_y
_atom_site_fract_z
     1  N          0.06416000       0.37915000       0.43161100
     2  N          0.43584000       0.62085000       0.93161100
     3  N          0.93584000       0.62085000       0.56838900
     4  N          0.56416000       0.37915000       0.06838900
     5  N          0.00186000       0.18485000       0.71609000
     6  N          0.49814000       0.81515000       0.21609000
     7  N         -0.00186000       0.81515000       0.28391000
     8  N          0.50186000       0.18485000       0.78391000
     9  C          0.01448000       0.31847000       0.57121200
    10  C          0.48552000       0.68153000       0.07121200
    11  C          0.98552000       0.68153000       0.42878800
    12  C          0.51448000       0.31847000       0.92878800
    13  H          0.98190000       0.37420000       0.57410000
    14  H          0.51810000       0.62580000       0.07410000
    15  H          0.01810000       0.62580000       0.42590000
    16  H          0.48190000       0.37420000       0.92590000
    17  C          0.05479000       0.11638000       0.70601300
    18  C          0.44521000       0.88362000       0.20601300
    19  C          0.94521000       0.88362000       0.29398700
    20  C          0.55479000       0.11638000       0.79398700
    21  H          0.05310000       0.02650000       0.80920000
    22  H          0.44690000       0.97350000       0.30920000
    23  H          0.94690000       0.97350000       0.19080000
    24  H          0.55310000       0.02650000       0.69080000
    25  C          0.10511000       0.16448000       0.56951300
    26  C          0.39489000       0.83552000       0.06951300
    27  C          0.89489000       0.83552000       0.43048700
    28  C          0.60511000       0.16448000       0.93048700
    29  H          0.13740000       0.10820000       0.56130000
    30  H          0.36260000       0.89180000       0.06130000
    31  H          0.86260000       0.89180000       0.43870000
    32  H          0.63740000       0.10820000       0.93870000
    33  C          0.11218000       0.30337000       0.43001100
    34  C          0.38782000       0.69663000       0.93001100
    35  C          0.88782000       0.69663000       0.56998900
    36  C          0.61218000       0.30337000       0.06998900
    37  H          0.14930000       0.34110000       0.33880000
    38  H          0.35070000       0.65890000       0.83880000
    39  H          0.85070000       0.65890000       0.66120000
    40  H          0.64930000       0.34110000       0.16120000
    41  N          0.18487000       0.88146000       0.78981000
    42  N          0.31513000       0.11854000       0.28981000
    43  N          0.81513000       0.11854000       0.21019000
    44  N          0.68487000       0.88146000       0.71019000
    45  N          0.24476000       0.68956000       0.67189000
    46  N          0.25524000       0.31044000       0.17189000
    47  N          0.75524000       0.31044000       0.32811000
    48  N          0.74476000       0.68956000       0.82811000
    49  C          0.23318000       0.82507000       0.67471100
    50  C          0.26682000       0.17493000       0.17471100
    51  C          0.76682000       0.17493000       0.32528900
    52  C          0.73318000       0.82507000       0.82528900
    53  H          0.26380000       0.88820000       0.58130000
    54  H          0.23620000       0.11180000       0.08130000
    55  H          0.73620000       0.11180000       0.41870000
    56  H          0.76380000       0.88820000       0.91870000
    57  C          0.19698000       0.60497000       0.80151100
    58  C          0.30302000       0.39503000       0.30151100
    59  C          0.80302000       0.39503000       0.19848900
    60  C          0.69698000       0.60497000       0.69848900
    61  H          0.20090000       0.50830000       0.80420000
    62  H          0.29910000       0.49170000       0.30420000
    63  H          0.79910000       0.49170000       0.19580000
    64  H          0.70090000       0.50830000       0.69580000
    65  C          0.14497000       0.64726000       0.92531000
    66  C          0.35503000       0.35274000       0.42531000
    67  C          0.85503000       0.35274000       0.07469000
    68  C          0.64497000       0.64726000       0.57469000
    69  H          0.11390000       0.58360000       0.01320000
    70  H          0.38610000       0.41640000       0.51320000
    71  H          0.88610000       0.41640000      -0.01320000
    72  H          0.61390000       0.58360000       0.48680000
    73  C          0.13948000       0.79348000       0.91591200
    74  C          0.36052000       0.20652000       0.41591200
    75  C          0.86052000       0.20652000       0.08408800
    76  C          0.63948000       0.79348000       0.58408800
    77  H          0.10380000       0.82870000      -0.00200000
    78  H          0.39620000       0.17130000       0.49800000
    79  H          0.89620000       0.17130000       0.00200000
    80  H          0.60380000       0.82870000       0.50200000
