data_PRMDIN
_symmetry_space_group_name_H-M    'P1'
_symmetry_Int_Tables_number       1
loop_
_symmetry_equiv_pos_site_id
_symmetry_equiv_pos_as_xyz
1 x,y,z
_cell_length_a                   11.698
_cell_length_b                   9.493
_cell_length_c                   3.806
_cell_angle_alpha                90.0
_cell_angle_beta                 90.0
_cell_angle_gamma                90.0
loop_
_atom_site_label
_atom_site_type_symbol
_atom_site_fract_x
_atom_site_fract_y
_atom_site_fract_z
     1  C          0.03180000       0.32630000       0.07400000
     2  C          0.46820000       0.82630000       0.57400000
     3  C          0.53180000       0.17370000       0.07400000
     4  C          0.96820000       0.67370000       0.57400000
     5  C          0.21520000       0.32070000       0.90910000
     6  C          0.28480000       0.82070000       0.40910000
     7  C          0.71520000       0.17930000       0.90910000
     8  C          0.78480000       0.67930000       0.40910000
     9  C          0.20630000       0.17760000       0.83980000
    10  C          0.29370000       0.67760000       0.33980000
    11  C          0.70630000       0.32240000       0.83980000
    12  C          0.79370000       0.82240000       0.33980000
    13  C          0.10220000       0.11830000       0.89670000
    14  C          0.39780000       0.61830000       0.39670000
    15  C          0.60220000       0.38170000       0.89670000
    16  C          0.89780000       0.88170000       0.39670000
    17  H          0.96390000       0.38580000       0.16030000
    18  H          0.53610000       0.88580000       0.66030000
    19  H          0.46390000       0.11420000       0.16030000
    20  H          0.03610000       0.61420000       0.66030000
    21  H          0.29240000       0.36780000       0.86920000
    22  H          0.20760000       0.86780000       0.36920000
    23  H          0.79240000       0.13220000       0.86920000
    24  H          0.70760000       0.63220000       0.36920000
    25  H          0.27530000       0.12050000       0.75410000
    26  H          0.22470000       0.62050000       0.25410000
    27  H          0.77530000       0.37950000       0.75410000
    28  H          0.72470000       0.87950000       0.25410000
    29  H          0.09060000       0.01200000       0.84450000
    30  H          0.40940000       0.51200000       0.34450000
    31  H          0.59060000       0.48800000       0.84450000
    32  H          0.90940000      -0.01200000       0.34450000
    33  N          0.12780000       0.39660000       0.02900000
    34  N          0.37220000       0.89660000       0.52900000
    35  N          0.62780000       0.10340000       0.02900000
    36  N          0.87220000       0.60340000       0.52900000
    37  N          0.01220000       0.19220000       0.01570000
    38  N          0.48780000       0.69220000       0.51570000
    39  N          0.51220000       0.30780000       0.01570000
    40  N          0.98780000       0.80780000       0.51570000
