data_PUFKOU01
_symmetry_space_group_name_H-M    'P1'
_symmetry_Int_Tables_number       1
loop_
_symmetry_equiv_pos_site_id
_symmetry_equiv_pos_as_xyz
1 x,y,z
_cell_length_a                   47.1274
_cell_length_b                   4.09912
_cell_length_c                   18.621414
_cell_angle_alpha                90.0
_cell_angle_beta                 105.6766
_cell_angle_gamma                90.0
loop_
_atom_site_label
_atom_site_type_symbol
_atom_site_fract_x
_atom_site_fract_y
_atom_site_fract_z
     1  C          0.38363000       0.59430000       0.52877000
     2  C          0.61637000       0.59430000       0.97123000
     3  C          0.88363000       0.09430000       0.52877000
     4  C          0.11637000       0.09430000       0.97123000
     5  C          0.61637000       0.40570000       0.47123000
     6  C          0.38363000       0.40570000       0.02877000
     7  C          0.11637000       0.90570000       0.47123000
     8  C          0.88363000       0.90570000       0.02877000
     9  C          0.40683000       0.63630000       0.60237000
    10  C          0.59317000       0.63630000       0.89763000
    11  C          0.90683000       0.13630000       0.60237000
    12  C          0.09317000       0.13630000       0.89763000
    13  C          0.59317000       0.36370000       0.39763000
    14  C          0.40683000       0.36370000       0.10237000
    15  C          0.09317000       0.86370000       0.39763000
    16  C          0.90683000       0.86370000       0.10237000
    17  C          0.43103000       0.82630000       0.58767000
    18  C          0.56897000       0.82630000       0.91233000
    19  C          0.93103000       0.32630000       0.58767000
    20  C          0.06897000       0.32630000       0.91233000
    21  C          0.56897000       0.17370000       0.41233000
    22  C          0.43103000       0.17370000       0.08767000
    23  C          0.06897000       0.67370000       0.41233000
    24  C          0.93103000       0.67370000       0.08767000
    25  C          0.45893000       0.93430000       0.63087000
    26  C          0.54107000       0.93430000       0.86913000
    27  C          0.95893000       0.43430000       0.63087000
    28  C          0.04107000       0.43430000       0.86913000
    29  C          0.54107000       0.06570000       0.36913000
    30  C          0.45893000       0.06570000       0.13087000
    31  C          0.04107000       0.56570000       0.36913000
    32  C          0.95893000       0.56570000       0.13087000
    33  H          0.46580000       0.88370000       0.68240000
    34  H          0.53420000       0.88370000       0.81760000
    35  H          0.96580000       0.38370000       0.68240000
    36  H          0.03420000       0.38370000       0.81760000
    37  H          0.53420000       0.11630000       0.31760000
    38  H          0.46580000       0.11630000       0.18240000
    39  H          0.03420000       0.61630000       0.31760000
    40  H          0.96580000       0.61630000       0.18240000
    41  C          0.47563000       0.11430000       0.59497000
    42  C          0.52437000       0.11430000       0.90503000
    43  C          0.97563000       0.61430000       0.59497000
    44  C          0.02437000       0.61430000       0.90503000
    45  C          0.52437000       0.88570000       0.40503000
    46  C          0.47563000       0.88570000       0.09497000
    47  C          0.02437000       0.38570000       0.40503000
    48  C          0.97563000       0.38570000       0.09497000
    49  C          0.46644000       0.17530000       0.51868000
    50  C          0.53356000       0.17530000       0.98132000
    51  C          0.96644000       0.67530000       0.51868000
    52  C          0.03356000       0.67530000       0.98132000
    53  C          0.53356000       0.82470000       0.48132000
    54  C          0.46644000       0.82470000       0.01868000
    55  C          0.03356000       0.32470000       0.48132000
    56  C          0.96644000       0.32470000       0.01868000
    57  H          0.47880000       0.29780000       0.49600000
    58  H          0.52120000       0.29780000       0.00400000
    59  H          0.97880000       0.79780000       0.49600000
    60  H          0.02120000       0.79780000       0.00400000
    61  H          0.52120000       0.70220000       0.50400000
    62  H          0.47880000       0.70220000      -0.00400000
    63  H          0.02120000       0.20220000       0.50400000
    64  H          0.97880000       0.20220000      -0.00400000
    65  C          0.43973000       0.06330000       0.47488000
    66  C          0.56027000       0.06330000       0.02512000
    67  C          0.93973000       0.56330000       0.47488000
    68  C          0.06027000       0.56330000       0.02512000
    69  C          0.56027000       0.93670000       0.52512000
    70  C          0.43973000       0.93670000       0.97488000
    71  C          0.06027000       0.43670000       0.52512000
    72  C          0.93973000       0.43670000       0.97488000
    73  H          0.43370000       0.10110000       0.42250000
    74  H          0.56630000       0.10110000       0.07750000
    75  H          0.93370000       0.60110000       0.42250000
    76  H          0.06630000       0.60110000       0.07750000
    77  H          0.56630000       0.89890000       0.57750000
    78  H          0.43370000       0.89890000       0.92250000
    79  H          0.06630000       0.39890000       0.57750000
    80  H          0.93370000       0.39890000       0.92250000
    81  C          0.42203000       0.89430000       0.51017000
    82  C          0.57797000       0.89430000       0.98983000
    83  C          0.92203000       0.39430000       0.51017000
    84  C          0.07797000       0.39430000       0.98983000
    85  C          0.57797000       0.10570000       0.48983000
    86  C          0.42203000       0.10570000       0.01017000
    87  C          0.07797000       0.60570000       0.48983000
    88  C          0.92203000       0.60570000       0.01017000
    89  I          0.51685200       0.28982000       0.65854500
    90  I          0.48314800       0.28982000       0.84145500
    91  I          0.01685200       0.78982000       0.65854500
    92  I          0.98314800       0.78982000       0.84145500
    93  I          0.48314800       0.71018000       0.34145500
    94  I          0.51685200       0.71018000       0.15854500
    95  I          0.98314800       0.21018000       0.34145500
    96  I          0.01685200       0.21018000       0.15854500
    97  N          0.39493000       0.75030000       0.47876000
    98  N          0.60507000       0.75030000       0.02124000
    99  N          0.89493000       0.25030000       0.47876000
   100  N          0.10507000       0.25030000       0.02124000
   101  N          0.60507000       0.24970000       0.52124000
   102  N          0.39493000       0.24970000       0.97876000
   103  N          0.10507000       0.74970000       0.52124000
   104  N          0.89493000       0.74970000       0.97876000
   105  H          0.38730000       0.73400000       0.43120000
   106  H          0.61270000       0.73400000       0.06880000
   107  H          0.88730000       0.23400000       0.43120000
   108  H          0.11270000       0.23400000       0.06880000
   109  H          0.61270000       0.26600000       0.56880000
   110  H          0.38730000       0.26600000       0.93120000
   111  H          0.11270000       0.76600000       0.56880000
   112  H          0.88730000       0.76600000       0.93120000
   113  N          0.40153000       0.51030000       0.66036000
   114  N          0.59847000       0.51030000       0.83964000
   115  N          0.90153000       0.01030000       0.66036000
   116  N          0.09847000       0.01030000       0.83964000
   117  N          0.59847000       0.48970000       0.33964000
   118  N          0.40153000       0.48970000       0.16036000
   119  N          0.09847000      -0.01030000       0.33964000
   120  N          0.90153000      -0.01030000       0.16036000
   121  O          0.36042000       0.44830000       0.52025000
   122  O          0.63958000       0.44830000       0.97975000
   123  O          0.86042000       0.94830000       0.52025000
   124  O          0.13958000       0.94830000       0.97975000
   125  O          0.63958000       0.55170000       0.47975000
   126  O          0.36042000       0.55170000       0.02025000
   127  O          0.13958000       0.05170000       0.47975000
   128  O          0.86042000       0.05170000       0.02025000
   129  O          0.42222000       0.56420000       0.72595000
   130  O          0.57778000       0.56420000       0.77405000
   131  O          0.92222000       0.06420000       0.72595000
   132  O          0.07778000       0.06420000       0.77405000
   133  O          0.57778000       0.43580000       0.27405000
   134  O          0.42222000       0.43580000       0.22595000
   135  O          0.07778000       0.93580000       0.27405000
   136  O          0.92222000       0.93580000       0.22595000
   137  H          0.41940000       0.44400000       0.75970000
   138  H          0.58060000       0.44400000       0.74030000
   139  H          0.91940000       0.94400000       0.75970000
   140  H          0.08060000       0.94400000       0.74030000
   141  H          0.58060000       0.55600000       0.24030000
   142  H          0.41940000       0.55600000       0.25970000
   143  H          0.08060000       0.05600000       0.24030000
   144  H          0.91940000       0.05600000       0.25970000
   145  C          0.36683000       0.09130000       0.76418000
   146  C          0.63317000       0.09130000       0.73582000
   147  C          0.86683000       0.59130000       0.76418000
   148  C          0.13317000       0.59130000       0.73582000
   149  C          0.63317000       0.90870000       0.23582000
   150  C          0.36683000       0.90870000       0.26418000
   151  C          0.13317000       0.40870000       0.23582000
   152  C          0.86683000       0.40870000       0.26418000
   153  C          0.34623000       0.88970000       0.79037000
   154  C          0.65377000       0.88970000       0.70963000
   155  C          0.84623000       0.38970000       0.79037000
   156  C          0.15377000       0.38970000       0.70963000
   157  C          0.65377000       0.11030000       0.20963000
   158  C          0.34623000       0.11030000       0.29037000
   159  C          0.15377000       0.61030000       0.20963000
   160  C          0.84623000       0.61030000       0.29037000
   161  C          0.32163000       0.78370000       0.72417000
   162  C          0.67837000       0.78370000       0.77583000
   163  C          0.82163000       0.28370000       0.72417000
   164  C          0.17837000       0.28370000       0.77583000
   165  C          0.67837000       0.21630000       0.27583000
   166  C          0.32163000       0.21630000       0.22417000
   167  C          0.17837000       0.71630000       0.27583000
   168  C          0.82163000       0.71630000       0.22417000
   169  C          0.29603000       0.62170000       0.71377000
   170  C          0.70397000       0.62170000       0.78623000
   171  C          0.79603000       0.12170000       0.71377000
   172  C          0.20397000       0.12170000       0.78623000
   173  C          0.70397000       0.37830000       0.28623000
   174  C          0.29603000       0.37830000       0.21377000
   175  C          0.20397000       0.87830000       0.28623000
   176  C          0.79603000       0.87830000       0.21377000
   177  H          0.29010000       0.53590000       0.75470000
   178  H          0.70990000       0.53590000       0.74530000
   179  H          0.79010000       0.03590000       0.75470000
   180  H          0.20990000       0.03590000       0.74530000
   181  H          0.70990000       0.46410000       0.24530000
   182  H          0.29010000       0.46410000       0.25470000
   183  H          0.20990000       0.96410000       0.24530000
   184  H          0.79010000       0.96410000       0.25470000
   185  C          0.27853000       0.58270000       0.64097000
   186  C          0.72147000       0.58270000       0.85903000
   187  C          0.77853000       0.08270000       0.64097000
   188  C          0.22147000       0.08270000       0.85903000
   189  C          0.72147000       0.41730000       0.35903000
   190  C          0.27853000       0.41730000       0.14097000
   191  C          0.22147000       0.91730000       0.35903000
   192  C          0.77853000       0.91730000       0.14097000
   193  C          0.28763000       0.69970000       0.58117000
   194  C          0.71237000       0.69970000       0.91883000
   195  C          0.78763000       0.19970000       0.58117000
   196  C          0.21237000       0.19970000       0.91883000
   197  C          0.71237000       0.30030000       0.41883000
   198  C          0.28763000       0.30030000       0.08117000
   199  C          0.21237000       0.80030000       0.41883000
   200  C          0.78763000       0.80030000       0.08117000
   201  H          0.27550000       0.66300000       0.53200000
   202  H          0.72450000       0.66300000       0.96800000
   203  H          0.77550000       0.16300000       0.53200000
   204  H          0.22450000       0.16300000       0.96800000
   205  H          0.72450000       0.33700000       0.46800000
   206  H          0.27550000       0.33700000       0.03200000
   207  H          0.22450000       0.83700000       0.46800000
   208  H          0.77550000       0.83700000       0.03200000
   209  C          0.31393000       0.86970000       0.59047000
   210  C          0.68607000       0.86970000       0.90953000
   211  C          0.81393000       0.36970000       0.59047000
   212  C          0.18607000       0.36970000       0.90953000
   213  C          0.68607000       0.13030000       0.40953000
   214  C          0.31393000       0.13030000       0.09047000
   215  C          0.18607000       0.63030000       0.40953000
   216  C          0.81393000       0.63030000       0.09047000
   217  H          0.32020000       0.94870000       0.54910000
   218  H          0.67980000       0.94870000       0.95090000
   219  H          0.82020000       0.44870000       0.54910000
   220  H          0.17980000       0.44870000       0.95090000
   221  H          0.67980000       0.05130000       0.45090000
   222  H          0.32020000       0.05130000       0.04910000
   223  H          0.17980000       0.55130000       0.45090000
   224  H          0.82020000       0.55130000       0.04910000
   225  C          0.33043000       0.91870000       0.66287000
   226  C          0.66957000       0.91870000       0.83713000
   227  C          0.83043000       0.41870000       0.66287000
   228  C          0.16957000       0.41870000       0.83713000
   229  C          0.66957000       0.08130000       0.33713000
   230  C          0.33043000       0.08130000       0.16287000
   231  C          0.16957000       0.58130000       0.33713000
   232  C          0.83043000       0.58130000       0.16287000
   233  I          0.23683200       0.36938000       0.62382500
   234  I          0.76316800       0.36938000       0.87617500
   235  I          0.73683200       0.86938000       0.62382500
   236  I          0.26316800       0.86938000       0.87617500
   237  I          0.76316800       0.63062000       0.37617500
   238  I          0.23683200       0.63062000       0.12382500
   239  I          0.26316800       0.13062000       0.37617500
   240  I          0.73683200       0.13062000       0.12382500
   241  N          0.35713000       0.09130000       0.68796000
   242  N          0.64287000       0.09130000       0.81204000
   243  N          0.85713000       0.59130000       0.68796000
   244  N          0.14287000       0.59130000       0.81204000
   245  N          0.64287000       0.90870000       0.31204000
   246  N          0.35713000       0.90870000       0.18796000
   247  N          0.14287000       0.40870000       0.31204000
   248  N          0.85713000       0.40870000       0.18796000
   249  H          0.36830000       0.21300000       0.66780000
   250  H          0.63170000       0.21300000       0.83220000
   251  H          0.86830000       0.71300000       0.66780000
   252  H          0.13170000       0.71300000       0.83220000
   253  H          0.63170000       0.78700000       0.33220000
   254  H          0.36830000       0.78700000       0.16780000
   255  H          0.13170000       0.28700000       0.33220000
   256  H          0.86830000       0.28700000       0.16780000
   257  N          0.35123000       0.83570000       0.86096000
   258  N          0.64877000       0.83570000       0.63904000
   259  N          0.85123000       0.33570000       0.86096000
   260  N          0.14877000       0.33570000       0.63904000
   261  N          0.64877000       0.16430000       0.13904000
   262  N          0.35123000       0.16430000       0.36096000
   263  N          0.14877000       0.66430000       0.13904000
   264  N          0.85123000       0.66430000       0.36096000
   265  O          0.38932000       0.22720000       0.80345000
   266  O          0.61068000       0.22720000       0.69655000
   267  O          0.88932000       0.72720000       0.80345000
   268  O          0.11068000       0.72720000       0.69655000
   269  O          0.61068000       0.77280000       0.19655000
   270  O          0.38932000       0.77280000       0.30345000
   271  O          0.11068000       0.27280000       0.19655000
   272  O          0.88932000       0.27280000       0.30345000
   273  O          0.33012000       0.63680000       0.87835000
   274  O          0.66988000       0.63680000       0.62165000
   275  O          0.83012000       0.13680000       0.87835000
   276  O          0.16988000       0.13680000       0.62165000
   277  O          0.66988000       0.36320000       0.12165000
   278  O          0.33012000       0.36320000       0.37835000
   279  O          0.16988000       0.86320000       0.12165000
   280  O          0.83012000       0.86320000       0.37835000
   281  H          0.33930000       0.57600000       0.92240000
   282  H          0.66070000       0.57600000       0.57760000
   283  H          0.83930000       0.07600000       0.92240000
   284  H          0.16070000       0.07600000       0.57760000
   285  H          0.66070000       0.42400000       0.07760000
   286  H          0.33930000       0.42400000       0.42240000
   287  H          0.16070000       0.92400000       0.07760000
   288  H          0.83930000       0.92400000       0.42240000
