data_PUFKOU03
_symmetry_space_group_name_H-M    'P1'
_symmetry_Int_Tables_number       1
loop_
_symmetry_equiv_pos_site_id
_symmetry_equiv_pos_as_xyz
1 x,y,z
_cell_length_a                   19.99977
_cell_length_b                   4.435501
_cell_length_c                   39.507514
_cell_angle_alpha                90.0
_cell_angle_beta                 99.1333
_cell_angle_gamma                90.0
loop_
_atom_site_label
_atom_site_type_symbol
_atom_site_fract_x
_atom_site_fract_y
_atom_site_fract_z
     1  C          0.62145170       0.38658000       0.36650900
     2  C          0.37854830       0.38658000       0.13349100
     3  C          0.12145170       0.88658000       0.36650900
     4  C          0.87854830       0.88658000       0.13349100
     5  C          0.37854830       0.61342000       0.63349100
     6  C          0.62145170       0.61342000       0.86650900
     7  C          0.87854830       0.11342000       0.63349100
     8  C          0.12145170       0.11342000       0.86650900
     9  C          0.57142160       0.58808000       0.34503900
    10  C          0.42857840       0.58808000       0.15496100
    11  C          0.07142160       0.08808000       0.34503900
    12  C          0.92857840       0.08808000       0.15496100
    13  C          0.42857840       0.41192000       0.65496100
    14  C          0.57142160       0.41192000       0.84503900
    15  C          0.92857840       0.91192000       0.65496100
    16  C          0.07142160       0.91192000       0.84503900
    17  C          0.60702160       0.74278000       0.32056800
    18  C          0.39297840       0.74278000       0.17943200
    19  C          0.10702160       0.24278000       0.32056800
    20  C          0.89297840       0.24278000       0.17943200
    21  C          0.39297840       0.25722000       0.67943200
    22  C          0.60702160       0.25722000       0.82056800
    23  C          0.89297840       0.75722000       0.67943200
    24  C          0.10702160       0.75722000       0.82056800
    25  C          0.58687160       0.94448000       0.29412900
    26  C          0.41312840       0.94448000       0.20587100
    27  C          0.08687160       0.44448000       0.29412900
    28  C          0.91312840       0.44448000       0.20587100
    29  C          0.41312840       0.05552000       0.70587100
    30  C          0.58687160       0.05552000       0.79412900
    31  C          0.91312840       0.55552000       0.70587100
    32  C          0.08687160       0.55552000       0.79412900
    33  H          0.54140000       0.01350000       0.28920000
    34  H          0.45860000       0.01350000       0.21080000
    35  H          0.04140000       0.51350000       0.28920000
    36  H          0.95860000       0.51350000       0.21080000
    37  H          0.45860000      -0.01350000       0.71080000
    38  H          0.54140000      -0.01350000       0.78920000
    39  H          0.95860000       0.48650000       0.71080000
    40  H          0.04140000       0.48650000       0.78920000
    41  C          0.63553160       0.04198000       0.27511900
    42  C          0.36446840       0.04198000       0.22488100
    43  C          0.13553160       0.54198000       0.27511900
    44  C          0.86446840       0.54198000       0.22488100
    45  C          0.36446840       0.95802000       0.72488100
    46  C          0.63553160       0.95802000       0.77511900
    47  C          0.86446840       0.45802000       0.72488100
    48  C          0.13553160       0.45802000       0.77511900
    49  C          0.70296160       0.94648000       0.28281900
    50  C          0.29703840       0.94648000       0.21718100
    51  C          0.20296160       0.44648000       0.28281900
    52  C          0.79703840       0.44648000       0.21718100
    53  C          0.29703840       0.05352000       0.71718100
    54  C          0.70296160       0.05352000       0.78281900
    55  C          0.79703840       0.55352000       0.71718100
    56  C          0.20296160       0.55352000       0.78281900
    57  H          0.73540000       0.02110000       0.26970000
    58  H          0.26460000       0.02110000       0.23030000
    59  H          0.23540000       0.52110000       0.26970000
    60  H          0.76460000       0.52110000       0.23030000
    61  H          0.26460000      -0.02110000       0.73030000
    62  H          0.73540000      -0.02110000       0.76970000
    63  H          0.76460000       0.47890000       0.73030000
    64  H          0.23540000       0.47890000       0.76970000
    65  C          0.72304160       0.74468000       0.30919900
    66  C          0.27695840       0.74468000       0.19080100
    67  C          0.22304160       0.24468000       0.30919900
    68  C          0.77695840       0.24468000       0.19080100
    69  C          0.27695840       0.25532000       0.69080100
    70  C          0.72304160       0.25532000       0.80919900
    71  C          0.77695840       0.75532000       0.69080100
    72  C          0.22304160       0.75532000       0.80919900
    73  H          0.76870000       0.67890000       0.31450000
    74  H          0.23130000       0.67890000       0.18550000
    75  H          0.26870000       0.17890000       0.31450000
    76  H          0.73130000       0.17890000       0.18550000
    77  H          0.23130000       0.32110000       0.68550000
    78  H          0.76870000       0.32110000       0.81450000
    79  H          0.73130000       0.82110000       0.68550000
    80  H          0.26870000       0.82110000       0.81450000
    81  C          0.67417170       0.64188000       0.32764900
    82  C          0.32582830       0.64188000       0.17235100
    83  C          0.17417170       0.14188000       0.32764900
    84  C          0.82582830       0.14188000       0.17235100
    85  C          0.32582830       0.35812000       0.67235100
    86  C          0.67417170       0.35812000       0.82764900
    87  C          0.82582830       0.85812000       0.67235100
    88  C          0.17417170       0.85812000       0.82764900
    89  I          0.60512200       0.31379500       0.23201200
    90  I          0.39487800       0.31379500       0.26798800
    91  I          0.10512200       0.81379500       0.23201200
    92  I          0.89487800       0.81379500       0.26798800
    93  I          0.39487800       0.68620500       0.76798800
    94  I          0.60512200       0.68620500       0.73201200
    95  I          0.89487800       0.18620500       0.76798800
    96  I          0.10512200       0.18620500       0.73201200
    97  N          0.68128140       0.43137000       0.35440800
    98  N          0.31871860       0.43137000       0.14559200
    99  N          0.18128140       0.93137000       0.35440800
   100  N          0.81871860       0.93137000       0.14559200
   101  N          0.31871860       0.56863000       0.64559200
   102  N          0.68128140       0.56863000       0.85440800
   103  N          0.81871860       0.06863000       0.64559200
   104  N          0.18128140       0.06863000       0.85440800
   105  H          0.71730000       0.30912000       0.36051400
   106  H          0.28270000       0.30912000       0.13948600
   107  H          0.21730000       0.80912000       0.36051400
   108  H          0.78270000       0.80912000       0.13948600
   109  H          0.28270000       0.69088000       0.63948600
   110  H          0.71730000       0.69088000       0.86051400
   111  H          0.78270000       0.19088000       0.63948600
   112  H          0.21730000       0.19088000       0.86051400
   113  N          0.51046140       0.58957000       0.35127800
   114  N          0.48953860       0.58957000       0.14872200
   115  N          0.01046140       0.08957000       0.35127800
   116  N          0.98953860       0.08957000       0.14872200
   117  N          0.48953860       0.41043000       0.64872200
   118  N          0.51046140       0.41043000       0.85127800
   119  N          0.98953860       0.91043000       0.64872200
   120  N          0.01046140       0.91043000       0.85127800
   121  O          0.61098130       0.21656000       0.38917700
   122  O          0.38901870       0.21656000       0.11082300
   123  O          0.11098130       0.71656000       0.38917700
   124  O          0.88901870       0.71656000       0.11082300
   125  O          0.38901870       0.78344000       0.61082300
   126  O          0.61098130       0.78344000       0.88917700
   127  O          0.88901870       0.28344000       0.61082300
   128  O          0.11098130       0.28344000       0.88917700
   129  O          0.46890130       0.78416000       0.33030700
   130  O          0.53109870       0.78416000       0.16969300
   131  O          0.96890130       0.28416000       0.33030700
   132  O          0.03109870       0.28416000       0.16969300
   133  O          0.53109870       0.21584000       0.66969300
   134  O          0.46890130       0.21584000       0.83030700
   135  O          0.03109870       0.71584000       0.66969300
   136  O          0.96890130       0.71584000       0.83030700
   137  H          0.43730000       0.78111000       0.33641200
   138  H          0.56270000       0.78111000       0.16358800
   139  H          0.93730000       0.28111000       0.33641200
   140  H          0.06270000       0.28111000       0.16358800
   141  H          0.56270000       0.21889000       0.66358800
   142  H          0.43730000       0.21889000       0.83641200
   143  H          0.06270000       0.71889000       0.66358800
   144  H          0.93730000       0.71889000       0.83641200
   145  C          0.36573160       0.45878000       0.38019900
   146  C          0.63426840       0.45878000       0.11980100
   147  C          0.86573160       0.95878000       0.38019900
   148  C          0.13426840       0.95878000       0.11980100
   149  C          0.63426840       0.54122000       0.61980100
   150  C          0.36573160       0.54122000       0.88019900
   151  C          0.13426840       0.04122000       0.61980100
   152  C          0.86573160       0.04122000       0.88019900
   153  C          0.31649160       0.36328000       0.40331800
   154  C          0.68350840       0.36328000       0.09668200
   155  C          0.81649160       0.86328000       0.40331800
   156  C          0.18350840       0.86328000       0.09668200
   157  C          0.68350840       0.63672000       0.59668200
   158  C          0.31649160       0.63672000       0.90331800
   159  C          0.18350840       0.13672000       0.59668200
   160  C          0.81649160       0.13672000       0.90331800
   161  C          0.35194170       0.15148000       0.42815900
   162  C          0.64805830       0.15148000       0.07184100
   163  C          0.85194170       0.65148000       0.42815900
   164  C          0.14805830       0.65148000       0.07184100
   165  C          0.64805830       0.84852000       0.57184100
   166  C          0.35194170       0.84852000       0.92815900
   167  C          0.14805830       0.34852000       0.57184100
   168  C          0.85194170       0.34852000       0.92815900
   169  C          0.33455160       0.00458000       0.45620900
   170  C          0.66544840       0.00458000       0.04379100
   171  C          0.83455160       0.50458000       0.45620900
   172  C          0.16544840       0.50458000       0.04379100
   173  C          0.66544840      -0.00458000       0.54379100
   174  C          0.33455160      -0.00458000       0.95620900
   175  C          0.16544840       0.49542000       0.54379100
   176  C          0.83455160       0.49542000       0.95620900
   177  H          0.29040000       0.02180000       0.46200000
   178  H          0.70960000       0.02180000       0.03800000
   179  H          0.79040000       0.52180000       0.46200000
   180  H          0.20960000       0.52180000       0.03800000
   181  H          0.70960000      -0.02180000       0.53800000
   182  H          0.29040000      -0.02180000       0.96200000
   183  H          0.20960000       0.47820000       0.53800000
   184  H          0.79040000       0.47820000       0.96200000
   185  C          0.38432180       0.82892000       0.47568900
   186  C          0.61567820       0.82892000       0.02431100
   187  C          0.88432180       0.32892000       0.47568900
   188  C          0.11567820       0.32892000       0.02431100
   189  C          0.61567820       0.17108000       0.52431100
   190  C          0.38432180       0.17108000       0.97568900
   191  C          0.11567820       0.67108000       0.52431100
   192  C          0.88432180       0.67108000       0.97568900
   193  C          0.44831180       0.79642000       0.46657100
   194  C          0.55168820       0.79642000       0.03342900
   195  C          0.94831180       0.29642000       0.46657100
   196  C          0.05168820       0.29642000       0.03342900
   197  C          0.55168820       0.20358000       0.53342900
   198  C          0.44831180       0.20358000       0.96657100
   199  C          0.05168820       0.70358000       0.53342900
   200  C          0.94831180       0.70358000       0.96657100
   201  H          0.48070000       0.67170000       0.48010000
   202  H          0.51930000       0.67170000       0.01990000
   203  H          0.98070000       0.17170000       0.48010000
   204  H          0.01930000       0.17170000       0.01990000
   205  H          0.51930000       0.32830000       0.51990000
   206  H          0.48070000       0.32830000       0.98010000
   207  H          0.01930000       0.82830000       0.51990000
   208  H          0.98070000       0.82830000       0.98010000
   209  C          0.46598180       0.94331000       0.43795100
   210  C          0.53401820       0.94331000       0.06204900
   211  C          0.96598180       0.44331000       0.43795100
   212  C          0.03401820       0.44331000       0.06204900
   213  C          0.53401820       0.05669000       0.56204900
   214  C          0.46598180       0.05669000       0.93795100
   215  C          0.03401820       0.55669000       0.56204900
   216  C          0.96598180       0.55669000       0.93795100
   217  H          0.50950000       0.92070000       0.43160000
   218  H          0.49050000       0.92070000       0.06840000
   219  H          0.00950000       0.42070000       0.43160000
   220  H          0.99050000       0.42070000       0.06840000
   221  H          0.49050000       0.07930000       0.56840000
   222  H          0.50950000       0.07930000       0.93160000
   223  H          0.99050000       0.57930000       0.56840000
   224  H          0.00950000       0.57930000       0.93160000
   225  C          0.41732160       0.12178000       0.41957900
   226  C          0.58267840       0.12178000       0.08042100
   227  C          0.91732160       0.62178000       0.41957900
   228  C          0.08267840       0.62178000       0.08042100
   229  C          0.58267840       0.87822000       0.58042100
   230  C          0.41732160       0.87822000       0.91957900
   231  C          0.08267840       0.37822000       0.58042100
   232  C          0.91732160       0.37822000       0.91957900
   233  I          0.36313200       0.61947400       0.52048200
   234  I          0.63686800       0.61947400       0.97951800
   235  I          0.86313200       0.11947400       0.52048200
   236  I          0.13686800       0.11947400       0.97951800
   237  I          0.63686800       0.38052600       0.47951800
   238  I          0.36313200       0.38052600       0.02048200
   239  I          0.13686800       0.88052600       0.47951800
   240  I          0.86313200       0.88052600       0.02048200
   241  N          0.42286150       0.29867000       0.39070800
   242  N          0.57713850       0.29867000       0.10929200
   243  N          0.92286150       0.79867000       0.39070800
   244  N          0.07713850       0.79867000       0.10929200
   245  N          0.57713850       0.70133000       0.60929200
   246  N          0.42286150       0.70133000       0.89070800
   247  N          0.07713850       0.20133000       0.60929200
   248  N          0.92286150       0.20133000       0.89070800
   249  H          0.46030000       0.32811000       0.38321300
   250  H          0.53970000       0.32811000       0.11678700
   251  H          0.96030000       0.82811000       0.38321300
   252  H          0.03970000       0.82811000       0.11678700
   253  H          0.53970000       0.67189000       0.61678700
   254  H          0.46030000       0.67189000       0.88321300
   255  H          0.03970000       0.17189000       0.61678700
   256  H          0.96030000       0.17189000       0.88321300
   257  N          0.25729140       0.48107000       0.39784700
   258  N          0.74270860       0.48107000       0.10215300
   259  N          0.75729140      -0.01893000       0.39784700
   260  N          0.24270860      -0.01893000       0.10215300
   261  N          0.74270860       0.51893000       0.60215300
   262  N          0.25729140       0.51893000       0.89784700
   263  N          0.24270860       0.01893000       0.60215300
   264  N          0.75729140       0.01893000       0.89784700
   265  O          0.35618130       0.64626000       0.35691700
   266  O          0.64381870       0.64626000       0.14308300
   267  O          0.85618130       0.14626000       0.35691700
   268  O          0.14381870       0.14626000       0.14308300
   269  O          0.64381870       0.35374000       0.64308300
   270  O          0.35618130       0.35374000       0.85691700
   271  O          0.14381870       0.85374000       0.64308300
   272  O          0.85618130       0.85374000       0.85691700
   273  O          0.21573130       0.38506000       0.42044700
   274  O          0.78426870       0.38506000       0.07955300
   275  O          0.71573130       0.88506000       0.42044700
   276  O          0.28426870       0.88506000       0.07955300
   277  O          0.78426870       0.61494000       0.57955300
   278  O          0.21573130       0.61494000       0.92044700
   279  O          0.28426870       0.11494000       0.57955300
   280  O          0.71573130       0.11494000       0.92044700
   281  H          0.17930000       0.48912000       0.41421300
   282  H          0.82070000       0.48912000       0.08578700
   283  H          0.67930000      -0.01088000       0.41421300
   284  H          0.32070000      -0.01088000       0.08578700
   285  H          0.82070000       0.51088000       0.58578700
   286  H          0.17930000       0.51088000       0.91421300
   287  H          0.32070000       0.01088000       0.58578700
   288  H          0.67930000       0.01088000       0.91421300
