data_PUFKOU
_symmetry_space_group_name_H-M    'P1'
_symmetry_Int_Tables_number       1
loop_
_symmetry_equiv_pos_site_id
_symmetry_equiv_pos_as_xyz
1 x,y,z
_cell_length_a                   10.67569
_cell_length_b                   10.10726
_cell_length_c                   16.194714
_cell_angle_alpha                90.0
_cell_angle_beta                 93.7537
_cell_angle_gamma                90.0
loop_
_atom_site_label
_atom_site_type_symbol
_atom_site_fract_x
_atom_site_fract_y
_atom_site_fract_z
     1  C          0.27897170       0.46999180       0.27405110
     2  C          0.72102830       0.46999180       0.22594890
     3  C          0.77897170       0.96999180       0.27405110
     4  C          0.22102830       0.96999180       0.22594890
     5  C          0.72102830       0.53000820       0.72594890
     6  C          0.27897170       0.53000820       0.77405110
     7  C          0.22102830       0.03000820       0.72594890
     8  C          0.77897170       0.03000820       0.77405110
     9  C          0.37033160       0.37160180       0.31398110
    10  C          0.62966840       0.37160180       0.18601890
    11  C          0.87033160       0.87160180       0.31398110
    12  C          0.12966840       0.87160180       0.18601890
    13  C          0.62966840       0.62839820       0.68601890
    14  C          0.37033160       0.62839820       0.81398110
    15  C          0.12966840       0.12839820       0.68601890
    16  C          0.87033160       0.12839820       0.81398110
    17  C          0.46952170       0.44758170       0.35836110
    18  C          0.53047830       0.44758170       0.14163890
    19  C          0.96952170       0.94758170       0.35836110
    20  C          0.03047830       0.94758170       0.14163890
    21  C          0.53047830       0.55241830       0.64163890
    22  C          0.46952170       0.55241830       0.85836110
    23  C          0.03047830       0.05241830       0.64163890
    24  C          0.96952170       0.05241830       0.85836110
    25  C          0.57797160       0.41228180       0.40565110
    26  C          0.42202840       0.41228180       0.09434890
    27  C          0.07797160       0.91228180       0.40565110
    28  C          0.92202840       0.91228180       0.09434890
    29  C          0.42202840       0.58771820       0.59434890
    30  C          0.57797160       0.58771820       0.90565110
    31  C          0.92202840       0.08771820       0.59434890
    32  C          0.07797160       0.08771820       0.90565110
    33  H          0.59920000       0.32220000       0.41590000
    34  H          0.40080000       0.32220000       0.08410000
    35  H          0.09920000       0.82220000       0.41590000
    36  H          0.90080000       0.82220000       0.08410000
    37  H          0.40080000       0.67780000       0.58410000
    38  H          0.59920000       0.67780000       0.91590000
    39  H          0.90080000       0.17780000       0.58410000
    40  H          0.09920000       0.17780000       0.91590000
    41  C          0.65422170       0.51507180       0.43727110
    42  C          0.34577830       0.51507180       0.06272890
    43  C          0.15422170       0.01507180       0.43727110
    44  C          0.84577830       0.01507180       0.06272890
    45  C          0.34577830       0.48492820       0.56272890
    46  C          0.65422170       0.48492820       0.93727110
    47  C          0.84577830       0.98492820       0.56272890
    48  C          0.15422170       0.98492820       0.93727110
    49  C          0.62410180       0.64755180       0.42263110
    50  C          0.37589820       0.64755180       0.07736890
    51  C          0.12410180       0.14755180       0.42263110
    52  C          0.87589820       0.14755180       0.07736890
    53  C          0.37589820       0.35244820       0.57736890
    54  C          0.62410180       0.35244820       0.92263110
    55  C          0.87589820       0.85244820       0.57736890
    56  C          0.12410180       0.85244820       0.92263110
    57  H          0.67850000       0.71470000       0.44510000
    58  H          0.32150000       0.71470000       0.05490000
    59  H          0.17850000       0.21470000       0.44510000
    60  H          0.82150000       0.21470000       0.05490000
    61  H          0.32150000       0.28530000       0.55490000
    62  H          0.67850000       0.28530000       0.94510000
    63  H          0.82150000       0.78530000       0.55490000
    64  H          0.17850000       0.78530000       0.94510000
    65  C          0.51482170       0.68314180       0.37524120
    66  C          0.48517830       0.68314180       0.12475880
    67  C          0.01482170       0.18314180       0.37524120
    68  C          0.98517830       0.18314180       0.12475880
    69  C          0.48517830       0.31685820       0.62475880
    70  C          0.51482170       0.31685820       0.87524120
    71  C          0.98517830       0.81685820       0.62475880
    72  C          0.01482170       0.81685820       0.87524120
    73  H          0.49350000       0.77320000       0.36530000
    74  H          0.50650000       0.77320000       0.13470000
    75  H         -0.00650000       0.27320000       0.36530000
    76  H          0.00650000       0.27320000       0.13470000
    77  H          0.50650000       0.22680000       0.63470000
    78  H          0.49350000       0.22680000       0.86530000
    79  H          0.00650000       0.72680000       0.63470000
    80  H         -0.00650000       0.72680000       0.86530000
    81  C          0.43949160       0.58191170       0.34364100
    82  C          0.56050840       0.58191170       0.15635900
    83  C          0.93949160       0.08191170       0.34364100
    84  C          0.06050840       0.08191170       0.15635900
    85  C          0.56050840       0.41808830       0.65635900
    86  C          0.43949160       0.41808830       0.84364100
    87  C          0.06050840       0.91808830       0.65635900
    88  C          0.93949160       0.91808830       0.84364100
    89  I          0.82109200       0.46711200       0.50694200
    90  I          0.17890800       0.46711200      -0.00694200
    91  I          0.32109200       0.96711200       0.50694200
    92  I          0.67890800       0.96711200      -0.00694200
    93  I          0.17890800       0.53288800       0.49305800
    94  I          0.82109200       0.53288800       0.00694200
    95  I          0.67890800       0.03288800       0.49305800
    96  I          0.32109200       0.03288800       0.00694200
    97  N          0.32712140       0.59136160       0.29381100
    98  N          0.67287860       0.59136160       0.20618900
    99  N          0.82712140       0.09136160       0.29381100
   100  N          0.17287860       0.09136160       0.20618900
   101  N          0.67287860       0.40863840       0.70618900
   102  N          0.32712140       0.40863840       0.79381100
   103  N          0.17287860       0.90863840       0.70618900
   104  N          0.82712140       0.90863840       0.79381100
   105  H          0.29330000       0.66130000       0.27751600
   106  H          0.70670000       0.66130000       0.22248400
   107  H          0.79330000       0.16130000       0.27751600
   108  H          0.20670000       0.16130000       0.22248400
   109  H          0.70670000       0.33870000       0.72248400
   110  H          0.29330000       0.33870000       0.77751600
   111  H          0.20670000       0.83870000       0.72248400
   112  H          0.79330000       0.83870000       0.77751600
   113  N          0.34872150       0.24865150       0.30017100
   114  N          0.65127850       0.24865150       0.19982900
   115  N          0.84872150       0.74865150       0.30017100
   116  N          0.15127850       0.74865150       0.19982900
   117  N          0.65127850       0.75134850       0.69982900
   118  N          0.34872150       0.75134850       0.80017100
   119  N          0.15127850       0.25134850       0.69982900
   120  N          0.84872150       0.25134850       0.80017100
   121  O          0.18145130       0.44563140       0.23179900
   122  O          0.81854870       0.44563140       0.26820100
   123  O          0.68145130       0.94563140       0.23179900
   124  O          0.31854870       0.94563140       0.26820100
   125  O          0.81854870       0.55436860       0.76820100
   126  O          0.18145130       0.55436860       0.73179900
   127  O          0.31854870       0.05436860       0.76820100
   128  O          0.68145130       0.05436860       0.73179900
   129  O          0.43752140       0.16516140       0.33732900
   130  O          0.56247860       0.16516140       0.16267100
   131  O          0.93752140       0.66516140       0.33732900
   132  O          0.06247860       0.66516140       0.16267100
   133  O          0.56247860       0.83483860       0.66267100
   134  O          0.43752140       0.83483860       0.83732900
   135  O          0.06247860       0.33483860       0.66267100
   136  O          0.93752140       0.33483860       0.83732900
   137  H          0.41230000       0.10130000       0.32291700
   138  H          0.58770000       0.10130000       0.17708300
   139  H          0.91230000       0.60130000       0.32291700
   140  H          0.08770000       0.60130000       0.17708300
   141  H          0.58770000       0.89870000       0.67708300
   142  H          0.41230000       0.89870000       0.82291700
   143  H          0.08770000       0.39870000       0.67708300
   144  H          0.91230000       0.39870000       0.82291700
