data_PULWIF
_symmetry_space_group_name_H-M    'P1'
_symmetry_Int_Tables_number       1
loop_
_symmetry_equiv_pos_site_id
_symmetry_equiv_pos_as_xyz
1 x,y,z
_cell_length_a                   7.380313
_cell_length_b                   8.258011
_cell_length_c                   20.7223
_cell_angle_alpha                89.2489
_cell_angle_beta                 88.45212
_cell_angle_gamma                63.4589
loop_
_atom_site_label
_atom_site_type_symbol
_atom_site_fract_x
_atom_site_fract_y
_atom_site_fract_z
     1  C          0.64128000       0.06726000       0.58803000
     2  C          0.35872000       0.93274000       0.41197000
     3  C          0.12641200       0.62911000       0.70023000
     4  C          0.87358800       0.37089000       0.29977000
     5  H          0.15910100       0.73155800       0.69631500
     6  H          0.84089900       0.26844200       0.30368500
     7  H          0.13835300       0.58902300       0.74531200
     8  H          0.86164700       0.41097700       0.25468800
     9  H          0.98741700       0.66658100       0.68631600
    10  H          0.01258300       0.33341900       0.31368400
    11  C          0.26539000       0.48387000       0.44943000
    12  C          0.73461000       0.51613000       0.55057000
    13  C          0.29771000       0.45218000       0.38343000
    14  C          0.70229000       0.54782000       0.61657000
    15  C          0.18301100       0.58598000       0.34013000
    16  C          0.81698900       0.41402000       0.65987000
    17  H          0.21185300       0.56209700       0.29530500
    18  H          0.78814700       0.43790300       0.70469500
    19  C          0.03451200       0.74611000       0.35773000
    20  C          0.96548800       0.25389000       0.64227000
    21  H          0.95724100       0.83268500       0.32630900
    22  H          0.04275900       0.16731500       0.67369100
    23  C         -0.00311200       0.78191000       0.42174000
    24  C          0.00311200       0.21809000       0.57826000
    25  H          0.89314300       0.89488200       0.43614900
    26  H          0.10685700       0.10511800       0.56385100
    27  C          0.11209000       0.65157000       0.46553000
    28  C          0.88791000       0.34843000       0.53447000
    29  H          0.08343000       0.67927000       0.51010000
    30  H          0.91657000       0.32073000       0.48990000
    31  C          0.36588000       0.37216000       0.55972000
    32  C          0.63412000       0.62784000       0.44028000
    33  C          0.48638000       0.24097000       0.60483000
    34  C          0.51362000       0.75903000       0.39517000
    35  C          0.42361000       0.30708000       0.66793000
    36  C          0.57639000       0.69292000       0.33207000
    37  H          0.47717500       0.24598200       0.70723700
    38  H          0.52282500       0.75401800       0.29276300
    39  C          0.26371000       0.48369000       0.66053000
    40  C          0.73629000       0.51631000       0.33947000
    41  N          0.37576000       0.36205000       0.49622000
    42  N          0.62424000       0.63795000       0.50378000
    43  H          0.46719500       0.26132200       0.48135900
    44  H          0.53280500       0.73867800       0.51864100
    45  N          0.45839000       0.28057000       0.35792000
    46  N          0.54161000       0.71943000       0.64208000
    47  N          0.76551000       0.92982000       0.57785000
    48  N          0.23449000       0.07018000       0.42215000
    49  O          0.23126000       0.51975000       0.59211170
    50  O          0.76874000       0.48025000       0.40788830
    51  O          0.58139000       0.18017000       0.39462000
    52  O          0.41861000       0.81983000       0.60538000
    53  O          0.45711200       0.25119000       0.30192000
    54  O          0.54288800       0.74881000       0.69808000
    55  C          0.68658000       0.43307000       0.08203000
    56  C          0.31342000       0.56693000       0.91797000
    57  C          0.73981100       0.86831000       0.19543000
    58  C          0.26018900       0.13169000       0.80457000
    59  H          0.69194500       0.91534600       0.23902100
    60  H          0.30805500       0.08465400       0.76097900
    61  H          0.87990600       0.77380200       0.19700300
    62  H          0.12009400       0.22619800       0.80299700
    63  H          0.65358400       0.81757700       0.17838200
    64  H          0.34641600       0.18242300       0.82161800
    65  C          0.77048000       0.00597000       0.94377000
    66  C          0.22952000      -0.00597000       0.05623000
    67  C          0.77178000       0.04067000       0.87657000
    68  C          0.22822000       0.95933000       0.12343000
    69  C          0.78129000       0.91662000       0.83077000
    70  C          0.21871000       0.08338000       0.16923000
    71  H          0.78257900       0.94348000       0.78613700
    72  H          0.21742100       0.05652000       0.21386300
    73  C          0.78861100       0.75511000       0.85037000
    74  C          0.21138900       0.24489000       0.14963000
    75  H          0.79553200       0.66932200       0.81917500
    76  H          0.20446800       0.33067800       0.18082500
    77  C          0.78601000       0.71622000       0.91507000
    78  C          0.21399000       0.28378000       0.08493000
    79  H          0.79074700       0.60384200       0.92826700
    80  H          0.20925300       0.39615800       0.07173300
    81  C          0.77689000       0.83673000       0.95997000
    82  C          0.22311000       0.16327000       0.04003000
    83  H          0.77453500       0.80661200       0.00428300
    84  H          0.22546500       0.19338800      -0.00428300
    85  C          0.73859000       0.12587000       0.05383000
    86  C          0.26141000       0.87413000       0.94617000
    87  C          0.70579000       0.25817000       0.09833000
    88  C          0.29421000       0.74183000       0.90167000
    89  C          0.70079000       0.18488000       0.16143000
    90  C          0.29921000       0.81512000       0.83857000
    91  H          0.67983500       0.24559300       0.20156400
    92  H          0.32016500       0.75440700       0.79843600
    93  C          0.73049000       0.01838000       0.15273000
    94  C          0.26951000      -0.01838000       0.84727000
    95  N          0.75907000       0.13065000       0.98908000
    96  N          0.24093000       0.86935000       0.01092000
    97  H          0.76849200       0.22422800       0.97451200
    98  H          0.23150800       0.77577200       0.02548800
    99  N          0.76068000       0.21167000       0.85248000
   100  N          0.23932000       0.78833000       0.14752000
   101  N          0.67189000       0.58246000       0.06993000
   102  N          0.32811000       0.41754000       0.93007000
   103  O          0.75406000       0.97595000       0.08510180
   104  O          0.24594000       0.02405000       0.91489820
   105  O          0.78347000       0.31535000       0.88988000
   106  O          0.21653000       0.68465000       0.11012000
   107  O          0.73389000       0.24607000       0.79588000
   108  O          0.26611000       0.75393000       0.20412000
