data_PULWIF02
_symmetry_space_group_name_H-M    'P1'
_symmetry_Int_Tables_number       1
loop_
_symmetry_equiv_pos_site_id
_symmetry_equiv_pos_as_xyz
1 x,y,z
_cell_length_a                   23.26031
_cell_length_b                   6.83713
_cell_length_c                   14.66296
_cell_angle_alpha                90.0
_cell_angle_beta                 112.32401
_cell_angle_gamma                90.0
loop_
_atom_site_label
_atom_site_type_symbol
_atom_site_fract_x
_atom_site_fract_y
_atom_site_fract_z
     1  O          0.39910400       0.63875140       0.39922700
     2  O          0.60089600       0.63875140       0.10077300
     3  O          0.89910400       0.13875140       0.39922700
     4  O          0.10089600       0.13875140       0.10077300
     5  O          0.60089600       0.36124860       0.60077300
     6  O          0.39910400       0.36124860       0.89922700
     7  O          0.10089600       0.86124860       0.60077300
     8  O          0.89910400       0.86124860       0.89922700
     9  O          0.20701500       0.59520160       0.44283800
    10  O          0.79298500       0.59520160       0.05716200
    11  O          0.70701500       0.09520160       0.44283800
    12  O          0.29298500       0.09520160       0.05716200
    13  O          0.79298500       0.40479840       0.55716200
    14  O          0.20701500       0.40479840       0.94283800
    15  O          0.29298500       0.90479840       0.55716200
    16  O          0.70701500       0.90479840       0.94283800
    17  O          0.13724500       0.37598170       0.37368800
    18  O          0.86275500       0.37598170       0.12631200
    19  O          0.63724500       0.87598170       0.37368800
    20  O          0.36275500       0.87598170       0.12631200
    21  O          0.86275500       0.62401830       0.62631200
    22  O          0.13724500       0.62401830       0.87368800
    23  O          0.36275500       0.12401830       0.62631200
    24  O          0.63724500       0.12401830       0.87368800
    25  N          0.32190500       0.55059190       0.45841900
    26  N          0.67809500       0.55059190       0.04158100
    27  N          0.82190500       0.05059190       0.45841900
    28  N          0.17809500       0.05059190       0.04158100
    29  N          0.67809500       0.44940810       0.54158100
    30  N          0.32190500       0.44940810       0.95841900
    31  N          0.17809500       0.94940810       0.54158100
    32  N          0.82190500       0.94940810       0.95841900
    33  H          0.29839000       0.62030000       0.47571400
    34  H          0.70161000       0.62030000       0.02428600
    35  H          0.79839000       0.12030000       0.47571400
    36  H          0.20161000       0.12030000       0.02428600
    37  H          0.70161000       0.37970000       0.52428600
    38  H          0.29839000       0.37970000       0.97571400
    39  H          0.20161000       0.87970000       0.52428600
    40  H          0.79839000       0.87970000       0.97571400
    41  N          0.19087500       0.43462180       0.40156800
    42  N          0.80912500       0.43462180       0.09843200
    43  N          0.69087500       0.93462180       0.40156800
    44  N          0.30912500       0.93462180       0.09843200
    45  N          0.80912500       0.56537820       0.59843200
    46  N          0.19087500       0.56537820       0.90156800
    47  N          0.30912500       0.06537820       0.59843200
    48  N          0.69087500       0.06537820       0.90156800
    49  N          0.42037600       0.70152000       0.73236900
    50  N          0.57962400       0.70152000       0.76763100
    51  N          0.92037600       0.20152000       0.73236900
    52  N          0.07962400       0.20152000       0.76763100
    53  N          0.57962400       0.29848000       0.26763100
    54  N          0.42037600       0.29848000       0.23236900
    55  N          0.07962400       0.79848000       0.26763100
    56  N          0.92037600       0.79848000       0.23236900
    57  C          0.42212600       0.69952000       0.65505110
    58  C          0.57787400       0.69952000       0.84494890
    59  C          0.92212600       0.19952000       0.65505110
    60  C          0.07787400       0.19952000       0.84494890
    61  C          0.57787400       0.30048000       0.34494890
    62  C          0.42212600       0.30048000       0.15505110
    63  C          0.07787400       0.80048000       0.34494890
    64  C          0.92212600       0.80048000       0.15505110
    65  C          0.48613700       0.75432000       0.36099110
    66  C          0.51386300       0.75432000       0.13900890
    67  C          0.98613700       0.25432000       0.36099110
    68  C          0.01386300       0.25432000       0.13900890
    69  C          0.51386300       0.24568000       0.63900890
    70  C          0.48613700       0.24568000       0.86099110
    71  C          0.01386300       0.74568000       0.63900890
    72  C          0.98613700       0.74568000       0.86099110
    73  H          0.48774200       0.63168800       0.33017400
    74  H          0.51225800       0.63168800       0.16982600
    75  H          0.98774200       0.13168800       0.33017400
    76  H          0.01225800       0.13168800       0.16982600
    77  H          0.51225800       0.36831200       0.66982600
    78  H          0.48774200       0.36831200       0.83017400
    79  H          0.01225800       0.86831200       0.66982600
    80  H          0.98774200       0.86831200       0.83017400
    81  H          0.52750100       0.80451200       0.39328100
    82  H          0.47249900       0.80451200       0.10671900
    83  H          0.02750100       0.30451200       0.39328100
    84  H          0.97249900       0.30451200       0.10671900
    85  H          0.47249900       0.19548800       0.60671900
    86  H          0.52750100       0.19548800       0.89328100
    87  H          0.97249900       0.69548800       0.60671900
    88  H          0.02750100       0.69548800       0.89328100
    89  H          0.46174200       0.84580400       0.31184400
    90  H          0.53825800       0.84580400       0.18815600
    91  H          0.96174200       0.34580400       0.31184400
    92  H          0.03825800       0.34580400       0.18815600
    93  H          0.53825800       0.15419600       0.68815600
    94  H          0.46174200       0.15419600       0.81184400
    95  H          0.03825800       0.65419600       0.68815600
    96  H          0.96174200       0.65419600       0.81184400
    97  C          0.29982600       0.37372000       0.41331900
    98  C          0.70017400       0.37372000       0.08668100
    99  C          0.79982600       0.87372000       0.41331900
   100  C          0.20017400       0.87372000       0.08668100
   101  C          0.70017400       0.62628000       0.58668100
   102  C          0.29982600       0.62628000       0.91331900
   103  C          0.20017400       0.12628000       0.58668100
   104  C          0.79982600       0.12628000       0.91331900
   105  C          0.23753600       0.31182000       0.38635100
   106  C          0.76246400       0.31182000       0.11364900
   107  C          0.73753600       0.81182000       0.38635100
   108  C          0.26246400       0.81182000       0.11364900
   109  C          0.76246400       0.68818000       0.61364900
   110  C          0.23753600       0.68818000       0.88635100
   111  C          0.26246400       0.18818000       0.61364900
   112  C          0.73753600       0.18818000       0.88635100
   113  C          0.21723700       0.12972000       0.34266100
   114  C          0.78276300       0.12972000       0.15733900
   115  C          0.71723700       0.62972000       0.34266100
   116  C          0.28276300       0.62972000       0.15733900
   117  C          0.78276300       0.87028000       0.65733900
   118  C          0.21723700       0.87028000       0.84266100
   119  C          0.28276300       0.37028000       0.65733900
   120  C          0.71723700       0.37028000       0.84266100
   121  H          0.17594800       0.09294900       0.32540100
   122  H          0.82405200       0.09294900       0.17459900
   123  H          0.67594800       0.59294900       0.32540100
   124  H          0.32405200       0.59294900       0.17459900
   125  H          0.82405200       0.90705100       0.67459900
   126  H          0.17594800       0.90705100       0.82540100
   127  H          0.32405200       0.40705100       0.67459900
   128  H          0.67594800       0.40705100       0.82540100
   129  C          0.25831700       0.00492000       0.32516100
   130  C          0.74168300       0.00492000       0.17483900
   131  C          0.75831700       0.50492000       0.32516100
   132  C          0.24168300       0.50492000       0.17483900
   133  C          0.74168300      -0.00492000       0.67483900
   134  C          0.25831700      -0.00492000       0.82516100
   135  C          0.24168300       0.49508000       0.67483900
   136  C          0.75831700       0.49508000       0.82516100
   137  H          0.24526000       0.88243300       0.29741700
   138  H          0.75474000       0.88243300       0.20258300
   139  H          0.74526000       0.38243300       0.29741700
   140  H          0.25474000       0.38243300       0.20258300
   141  H          0.75474000       0.11756700       0.70258300
   142  H          0.24526000       0.11756700       0.79741700
   143  H          0.25474000       0.61756700       0.70258300
   144  H          0.74526000       0.61756700       0.79741700
   145  C          0.31959700       0.06402000       0.34943100
   146  C          0.68040300       0.06402000       0.15056900
   147  C          0.81959700       0.56402000       0.34943100
   148  C          0.18040300       0.56402000       0.15056900
   149  C          0.68040300       0.93598000       0.65056900
   150  C          0.31959700       0.93598000       0.84943100
   151  C          0.18040300       0.43598000       0.65056900
   152  C          0.81959700       0.43598000       0.84943100
   153  H          0.34729100      -0.01912000       0.33664200
   154  H          0.65270900      -0.01912000       0.16335800
   155  H          0.84729100       0.48088000       0.33664200
   156  H          0.15270900       0.48088000       0.16335800
   157  H          0.65270900       0.01912000       0.66335800
   158  H          0.34729100       0.01912000       0.83664200
   159  H          0.15270900       0.51912000       0.66335800
   160  H          0.84729100       0.51912000       0.83664200
   161  C          0.33985600       0.24342000       0.39207100
   162  C          0.66014400       0.24342000       0.10792900
   163  C          0.83985600       0.74342000       0.39207100
   164  C          0.16014400       0.74342000       0.10792900
   165  C          0.66014400       0.75658000       0.60792900
   166  C          0.33985600       0.75658000       0.89207100
   167  C          0.16014400       0.25658000       0.60792900
   168  C          0.83985600       0.25658000       0.89207100
   169  H          0.38100500       0.27935100       0.40720200
   170  H          0.61899500       0.27935100       0.09279800
   171  H          0.88100500       0.77935100       0.40720200
   172  H          0.11899500       0.77935100       0.09279800
   173  H          0.61899500       0.72064900       0.59279800
   174  H          0.38100500       0.72064900       0.90720200
   175  H          0.11899500       0.22064900       0.59279800
   176  H          0.88100500       0.22064900       0.90720200
   177  C          0.38074600       0.62152000       0.47672100
   178  C          0.61925400       0.62152000       0.02327900
   179  C          0.88074600       0.12152000       0.47672100
   180  C          0.11925400       0.12152000       0.02327900
   181  C          0.61925400       0.37848000       0.52327900
   182  C          0.38074600       0.37848000       0.97672100
   183  C          0.11925400       0.87848000       0.52327900
   184  C          0.88074600       0.87848000       0.97672100
   185  C          0.42516600       0.69592000       0.55955100
   186  C          0.57483400       0.69592000       0.94044900
   187  C          0.92516600       0.19592000       0.55955100
   188  C          0.07483400       0.19592000       0.94044900
   189  C          0.57483400       0.30408000       0.44044900
   190  C          0.42516600       0.30408000       0.05955100
   191  C          0.07483400       0.80408000       0.44044900
   192  C          0.92516600       0.80408000       0.05955100
   193  C          0.47460600       0.76372000       0.53156100
   194  C          0.52539400       0.76372000       0.96843900
   195  C          0.97460600       0.26372000       0.53156100
   196  C          0.02539400       0.26372000       0.96843900
   197  C          0.52539400       0.23628000       0.46843900
   198  C          0.47460600       0.23628000       0.03156100
   199  C          0.02539400       0.73628000       0.46843900
   200  C          0.97460600       0.73628000       0.03156100
   201  H          0.51138100       0.82279400       0.57242300
   202  H          0.48861900       0.82279400       0.92757700
   203  H          0.01138100       0.32279400       0.57242300
   204  H          0.98861900       0.32279400       0.92757700
   205  H          0.48861900       0.17720600       0.42757700
   206  H          0.51138100       0.17720600       0.07242300
   207  H          0.98861900       0.67720600       0.42757700
   208  H          0.01138100       0.67720600       0.07242300
   209  C          0.45741600       0.72502000       0.43464110
   210  C          0.54258400       0.72502000       0.06535890
   211  C          0.95741600       0.22502000       0.43464110
   212  C          0.04258400       0.22502000       0.06535890
   213  C          0.54258400       0.27498000       0.56535890
   214  C          0.45741600       0.27498000       0.93464110
   215  C          0.04258400       0.77498000       0.56535890
   216  C          0.95741600       0.77498000       0.93464110
