data_PULWIF03
_symmetry_space_group_name_H-M    'P1'
_symmetry_Int_Tables_number       1
loop_
_symmetry_equiv_pos_site_id
_symmetry_equiv_pos_as_xyz
1 x,y,z
_cell_length_a                   3.9524
_cell_length_b                   21.87016
_cell_length_c                   12.86412
_cell_angle_alpha                90.0
_cell_angle_beta                 95.604
_cell_angle_gamma                90.0
loop_
_atom_site_label
_atom_site_type_symbol
_atom_site_fract_x
_atom_site_fract_y
_atom_site_fract_z
     1  O          0.30098000       0.45263130       0.17923000
     2  O          0.69902000       0.95263130       0.32077000
     3  O          0.69902000       0.54736870       0.82077000
     4  O          0.30098000       0.04736870       0.67923000
     5  O          0.09671200       0.26312000       0.34704000
     6  O          0.90328800       0.76312000       0.15296000
     7  O          0.90328800       0.73688000       0.65296000
     8  O          0.09671200       0.23688000       0.84704000
     9  O          0.17241200       0.17243170       0.28894000
    10  O          0.82758800       0.67243170       0.21106000
    11  O          0.82758800       0.82756830       0.71106000
    12  O          0.17241200       0.32756830       0.78894000
    13  N          0.36461000       0.35807160       0.26714000
    14  N          0.63539000       0.85807160       0.23286000
    15  N          0.63539000       0.64192840       0.73286000
    16  N          0.36461000       0.14192840       0.76714000
    17  H          0.25416800       0.34441200       0.31852600
    18  H          0.74583200       0.84441200       0.18147400
    19  H          0.74583200       0.65558800       0.68147400
    20  H          0.25416800       0.15558800       0.81852600
    21  N          0.20871300       0.22782000       0.28485000
    22  N          0.79128700       0.72782000       0.21515000
    23  N          0.79128700       0.77218000       0.71515000
    24  N          0.20871300       0.27218000       0.78485000
    25  N          0.94811200       0.41615180       0.50064000
    26  N          0.05188800       0.91615180      -0.00064000
    27  N          0.05188800       0.58384820       0.49936000
    28  N          0.94811200       0.08384820       0.00064000
    29  C          0.80061300       0.43577190       0.42794000
    30  C          0.19938700       0.93577190       0.07206000
    31  C          0.19938700       0.56422810       0.57206000
    32  C          0.80061300       0.06422810       0.92794000
    33  C          0.28861100       0.55692000       0.11564000
    34  C          0.71138900       0.05692000       0.38436000
    35  C          0.71138900       0.44308000       0.88436000
    36  C          0.28861100       0.94308000       0.61564000
    37  H          0.38748000       0.59699700       0.13412300
    38  H          0.61252000       0.09699700       0.36587700
    39  H          0.61252000       0.40300300       0.86587700
    40  H          0.38748000       0.90300300       0.63412300
    41  H          0.04001100       0.55978500       0.11007500
    42  H          0.95998900       0.05978500       0.38992500
    43  H          0.95998900       0.44021500       0.88992500
    44  H          0.04001100       0.94021500       0.61007500
    45  H          0.36135100       0.54370000       0.04847200
    46  H          0.63864900       0.04370000       0.45152800
    47  H          0.63864900       0.45630000       0.95152800
    48  H          0.36135100       0.95630000       0.54847200
    49  C          0.37891400       0.25312000       0.20195000
    50  C          0.62108600       0.75312000       0.29805000
    51  C          0.62108600       0.74688000       0.79805000
    52  C          0.37891400       0.24688000       0.70195000
    53  C          0.47651500       0.21162000       0.12726000
    54  C          0.52348500       0.71162000       0.37274000
    55  C          0.52348500       0.78838000       0.87274000
    56  C          0.47651500       0.28838000       0.62726000
    57  H          0.42687700       0.16934500       0.13341700
    58  H          0.57312300       0.66934500       0.36658300
    59  H          0.57312300       0.83065500       0.86658300
    60  H          0.42687700       0.33065500       0.63341700
    61  C          0.64271400       0.23182000       0.04566000
    62  C          0.35728600       0.73182000       0.45434000
    63  C          0.35728600       0.76818000       0.95434000
    64  C          0.64271400       0.26818000       0.54566000
    65  H          0.70960100       0.20337900      -0.00428600
    66  H          0.29039900       0.70337900       0.50428600
    67  H          0.29039900       0.79662100       0.00428600
    68  H          0.70960100       0.29662100       0.49571400
    69  C          0.71531200       0.29362000       0.03455000
    70  C          0.28468800       0.79362000       0.46545000
    71  C          0.28468800       0.70638000       0.96545000
    72  C          0.71531200       0.20638000       0.53455000
    73  H          0.82777800       0.30743600       0.97689100
    74  H          0.17222200       0.80743600       0.52310900
    75  H          0.17222200       0.69256400       0.02310900
    76  H          0.82777800       0.19256400       0.47689100
    77  C          0.62251300       0.33462000       0.10805000
    78  C          0.37748700       0.83462000       0.39195000
    79  C          0.37748700       0.66538000       0.89195000
    80  C          0.62251300       0.16538000       0.60805000
    81  H          0.67492700       0.37668900       0.10065400
    82  H          0.32507300       0.87668900       0.39934600
    83  H          0.32507300       0.62331100       0.89934600
    84  H          0.67492700       0.12331100       0.60065400
    85  C          0.45401200       0.31610190       0.19285000
    86  C          0.54598800       0.81610190       0.30715000
    87  C          0.54598800       0.68389810       0.80715000
    88  C          0.45401200       0.18389810       0.69285000
    89  C          0.43761100       0.41892180       0.26484000
    90  C          0.56238900       0.91892180       0.23516000
    91  C          0.56238900       0.58107820       0.73516000
    92  C          0.43761100       0.08107820       0.76484000
    93  C          0.61331200       0.45732000       0.33194000
    94  C          0.38668800       0.95732000       0.16806000
    95  C          0.38668800       0.54268000       0.66806000
    96  C          0.61331200       0.04268000       0.83194000
    97  C          0.58891200       0.51662000       0.28994000
    98  C          0.41108800       0.01662000       0.21006000
    99  C          0.41108800       0.48338000       0.71006000
   100  C          0.58891200       0.98338000       0.78994000
   101  H          0.68524200       0.55264900       0.32159700
   102  H          0.31475800       0.05264900       0.17840300
   103  H          0.31475800       0.44735100       0.67840300
   104  H          0.68524200       0.94735100       0.82159700
   105  C          0.40211100       0.51290190       0.19564000
   106  C          0.59788900       0.01290190       0.30436000
   107  C          0.59788900       0.48709810       0.80436000
   108  C          0.40211100       0.98709810       0.69564000
