data_PULWIF01
_symmetry_space_group_name_H-M    'P1'
_symmetry_Int_Tables_number       1
loop_
_symmetry_equiv_pos_site_id
_symmetry_equiv_pos_as_xyz
1 x,y,z
_cell_length_a                   22.33148
_cell_length_b                   13.90045
_cell_length_c                   7.21643
_cell_angle_alpha                90.0
_cell_angle_beta                 90.0
_cell_angle_gamma                90.0
loop_
_atom_site_label
_atom_site_type_symbol
_atom_site_fract_x
_atom_site_fract_y
_atom_site_fract_z
     1  O          0.29803300       0.16244600       0.45888120
     2  O          0.20196700       0.83755400       0.45888120
     3  O          0.20196700       0.66244600       0.04111880
     4  O          0.29803300       0.33755400       0.04111880
     5  O          0.70196700       0.83755400       0.54111880
     6  O          0.79803300       0.16244600       0.54111880
     7  O          0.79803300       0.33755400       0.95888120
     8  O          0.70196700       0.66244600       0.95888120
     9  O          0.48984400       0.32198600       0.59975140
    10  O          0.01015600       0.67801400       0.59975140
    11  O          0.01015600       0.82198600       0.90024860
    12  O          0.48984400       0.17801400       0.90024860
    13  O          0.51015600       0.67801400       0.40024860
    14  O          0.98984400       0.32198600       0.40024860
    15  O          0.98984400       0.17801400       0.09975140
    16  O          0.51015600       0.82198600       0.09975140
    17  O          0.57618500       0.26705800       0.52300180
    18  O          0.92381500       0.73294200       0.52300180
    19  O          0.92381500       0.76705800       0.97699820
    20  O          0.57618500       0.23294200       0.97699820
    21  O          0.42381500       0.73294200       0.47699820
    22  O          0.07618500       0.26705800       0.47699820
    23  O          0.07618500       0.23294200       0.02300180
    24  O          0.42381500       0.76705800       0.02300180
    25  N          0.39247500       0.23261700       0.50859150
    26  N          0.10752500       0.76738300       0.50859150
    27  N          0.10752500       0.73261700      -0.00859150
    28  N          0.39247500       0.26738300      -0.00859150
    29  N          0.60752500       0.76738300       0.49140850
    30  N          0.89247500       0.23261700       0.49140850
    31  N          0.89247500       0.26738300       0.00859150
    32  N          0.60752500       0.73261700       0.00859150
    33  H          0.41149000       0.28461300       0.55530000
    34  H          0.08851000       0.71538700       0.55530000
    35  H          0.08851000       0.78461300       0.94470000
    36  H          0.41149000       0.21538700       0.94470000
    37  H          0.58851000       0.71538700       0.44470000
    38  H          0.91149000       0.28461300       0.44470000
    39  H          0.91149000       0.21538700       0.05530000
    40  H          0.58851000       0.78461300       0.05530000
    41  N          0.52165500       0.26007700       0.52420150
    42  N          0.97834500       0.73992300       0.52420150
    43  N          0.97834500       0.76007700       0.97579850
    44  N          0.52165500       0.23992300       0.97579850
    45  N          0.47834500       0.73992300       0.47579850
    46  N          0.02165500       0.26007700       0.47579850
    47  N          0.02165500       0.23992300       0.02420150
    48  N          0.47834500       0.76007700       0.02420150
    49  N          0.33470600       0.48475900       0.62452000
    50  N          0.16529400       0.51524100       0.62452000
    51  N          0.16529400       0.98475900       0.87548000
    52  N          0.33470600       0.01524100       0.87548000
    53  N          0.66529400       0.51524100       0.37548000
    54  N          0.83470600       0.48475900       0.37548000
    55  N          0.83470600       0.01524100       0.12452000
    56  N          0.66529400       0.98475900       0.12452000
    57  C          0.33163500       0.23966800       0.50093140
    58  C          0.16836500       0.76033200       0.50093140
    59  C          0.16836500       0.73966800      -0.00093140
    60  C          0.33163500       0.26033200      -0.00093140
    61  C          0.66836500       0.76033200       0.49906860
    62  C          0.83163500       0.23966800       0.49906860
    63  C          0.83163500       0.26033200       0.00093140
    64  C          0.66836500       0.73966800       0.00093140
    65  C          0.29554500       0.31714800       0.53936160
    66  C          0.20445500       0.68285200       0.53936160
    67  C          0.20445500       0.81714800       0.96063840
    68  C          0.29554500       0.18285200       0.96063840
    69  C          0.70445500       0.68285200       0.46063840
    70  C          0.79554500       0.31714800       0.46063840
    71  C          0.79554500       0.18285200       0.03936160
    72  C          0.70445500       0.81714800       0.03936160
    73  C          0.23490600       0.28333900       0.51838180
    74  C          0.26509400       0.71666100       0.51838180
    75  C          0.26509400       0.78333900      -0.01838180
    76  C          0.23490600       0.21666100      -0.01838180
    77  C          0.76509400       0.71666100       0.48161820
    78  C          0.73490600       0.28333900       0.48161820
    79  C          0.73490600       0.21666100       0.01838180
    80  C          0.76509400       0.78333900       0.01838180
    81  H          0.19807000       0.32151200       0.53720000
    82  H          0.30193000       0.67848800       0.53720000
    83  H          0.30193000       0.82151200       0.96280000
    84  H          0.19807000       0.17848800       0.96280000
    85  H          0.80193000       0.67848800       0.46280000
    86  H          0.69807000       0.32151200       0.46280000
    87  H          0.69807000       0.17848800       0.03720000
    88  H          0.80193000       0.82151200       0.03720000
    89  C          0.23793500       0.19049900       0.46889170
    90  C          0.26206500       0.80950100       0.46889170
    91  C          0.26206500       0.69049900       0.03110830
    92  C          0.23793500       0.30950100       0.03110830
    93  C          0.76206500       0.80950100       0.53110830
    94  C          0.73793500       0.19049900       0.53110830
    95  C          0.73793500       0.30950100       0.96889170
    96  C          0.76206500       0.69049900       0.96889170
    97  C          0.31674600       0.41021900       0.58672000
    98  C          0.18325400       0.58978100       0.58672000
    99  C          0.18325400       0.91021900       0.91328000
   100  C          0.31674600       0.08978100       0.91328000
   101  C          0.68325400       0.58978100       0.41328000
   102  C          0.81674600       0.41021900       0.41328000
   103  C          0.81674600       0.08978100       0.08672000
   104  C          0.68325400       0.91021900       0.08672000
   105  C          0.19418600       0.11404110       0.42222000
   106  C          0.30581400       0.88595890       0.42222000
   107  C          0.30581400       0.61404110       0.07778000
   108  C          0.19418600       0.38595890       0.07778000
   109  C          0.80581400       0.88595890       0.57778000
   110  C          0.69418600       0.11404110       0.57778000
   111  C          0.69418600       0.38595890       0.92222000
   112  C          0.80581400       0.61404110       0.92222000
   113  H          0.15371000       0.14231400       0.40530000
   114  H          0.34629000       0.85768600       0.40530000
   115  H          0.34629000       0.64231400       0.09470000
   116  H          0.15371000       0.35768600       0.09470000
   117  H          0.84629000       0.85768600       0.59470000
   118  H          0.65371000       0.14231400       0.59470000
   119  H          0.65371000       0.35768600       0.90530000
   120  H          0.84629000       0.64231400       0.90530000
   121  H          0.20771000       0.07821600       0.30230000
   122  H          0.29229000       0.92178400       0.30230000
   123  H          0.29229000       0.57821600       0.19770000
   124  H          0.20771000       0.42178400       0.19770000
   125  H          0.79229000       0.92178400       0.69770000
   126  H          0.70771000       0.07821600       0.69770000
   127  H          0.70771000       0.42178400       0.80230000
   128  H          0.79229000       0.57821600       0.80230000
   129  H          0.19451100       0.06620000       0.52330000
   130  H          0.30548900       0.93380000       0.52330000
   131  H          0.30548900       0.56620000       0.97670000
   132  H          0.19451100       0.43380000       0.97670000
   133  H          0.80548900       0.93380000       0.47670000
   134  H          0.69451100       0.06620000       0.47670000
   135  H          0.69451100       0.43380000       0.02330000
   136  H          0.80548900       0.56620000       0.02330000
   137  C          0.43077500       0.16635700       0.42664150
   138  C          0.06922500       0.83364300       0.42664150
   139  C          0.06922500       0.66635700       0.07335850
   140  C          0.43077500       0.33364300       0.07335850
   141  C          0.56922500       0.83364300       0.57335850
   142  C          0.93077500       0.16635700       0.57335850
   143  C          0.93077500       0.33364300       0.92664150
   144  C          0.56922500       0.66635700       0.92664150
   145  C          0.49361500       0.17837700       0.43377150
   146  C          0.00638500       0.82162300       0.43377150
   147  C          0.00638500       0.67837700       0.06622850
   148  C          0.49361500       0.32162300       0.06622850
   149  C          0.50638500       0.82162300       0.56622850
   150  C          0.99361500       0.17837700       0.56622850
   151  C          0.99361500       0.32162300       0.93377150
   152  C          0.50638500       0.67837700       0.93377150
   153  C          0.53260500       0.11270800       0.34990160
   154  C          0.96739500       0.88729200       0.34990160
   155  C          0.96739500       0.61270800       0.15009840
   156  C          0.53260500       0.38729200       0.15009840
   157  C          0.46739500       0.88729200       0.65009840
   158  C          0.03260500       0.11270800       0.65009840
   159  C          0.03260500       0.38729200       0.84990160
   160  C          0.46739500       0.61270800       0.84990160
   161  H          0.57457000       0.12521100       0.35320000
   162  H          0.92543000       0.87478900       0.35320000
   163  H          0.92543000       0.62521100       0.14680000
   164  H          0.57457000       0.37478900       0.14680000
   165  H          0.42543000       0.87478900       0.64680000
   166  H          0.07457000       0.12521100       0.64680000
   167  H          0.07457000       0.37478900       0.85320000
   168  H          0.42543000       0.62521100       0.85320000
   169  C          0.51026500       0.03400800       0.25748160
   170  C          0.98973500       0.96599200       0.25748160
   171  C          0.98973500       0.53400800       0.24251840
   172  C          0.51026500       0.46599200       0.24251840
   173  C          0.48973500       0.96599200       0.74251840
   174  C          0.01026500       0.03400800       0.74251840
   175  C          0.01026500       0.46599200       0.75748160
   176  C          0.48973500       0.53400800       0.75748160
   177  H          0.53718000      -0.00981300       0.20420000
   178  H          0.96282000       0.00981300       0.20420000
   179  H          0.96282000       0.49018700       0.29580000
   180  H          0.53718000       0.50981300       0.29580000
   181  H          0.46282000       0.00981300       0.79580000
   182  H          0.03718000      -0.00981300       0.79580000
   183  H          0.03718000       0.50981300       0.70420000
   184  H          0.46282000       0.49018700       0.70420000
   185  C          0.44862500       0.02081800       0.24826170
   186  C          0.05137500       0.97918200       0.24826170
   187  C          0.05137500       0.52081800       0.25173830
   188  C          0.44862500       0.47918200       0.25173830
   189  C          0.55137500       0.97918200       0.75173830
   190  C          0.94862500       0.02081800       0.75173830
   191  C          0.94862500       0.47918200       0.74826170
   192  C          0.55137500       0.52081800       0.74826170
   193  H          0.43267000       0.96608900       0.18320000
   194  H          0.06733000       0.03391100       0.18320000
   195  H          0.06733000       0.46608900       0.31680000
   196  H          0.43267000       0.53391100       0.31680000
   197  H          0.56733000       0.03391100       0.81680000
   198  H          0.93267000       0.96608900       0.81680000
   199  H          0.93267000       0.53391100       0.68320000
   200  H          0.56733000       0.46608900       0.68320000
   201  C          0.40953500       0.08512800       0.33042160
   202  C          0.09046500       0.91487200       0.33042160
   203  C          0.09046500       0.58512800       0.16957840
   204  C          0.40953500       0.41487200       0.16957840
   205  C          0.59046500       0.91487200       0.66957840
   206  C          0.90953500       0.08512800       0.66957840
   207  C          0.90953500       0.41487200       0.83042160
   208  C          0.59046500       0.58512800       0.83042160
   209  H          0.36716000       0.07461000       0.31991900
   210  H          0.13284000       0.92539000       0.31991900
   211  H          0.13284000       0.57461000       0.18008100
   212  H          0.36716000       0.42539000       0.18008100
   213  H          0.63284000       0.92539000       0.68008100
   214  H          0.86716000       0.07461000       0.68008100
   215  H          0.86716000       0.42539000       0.81991900
   216  H          0.63284000       0.57461000       0.81991900
