data_PUPBAD02
_symmetry_space_group_name_H-M    'P1'
_symmetry_Int_Tables_number       1
loop_
_symmetry_equiv_pos_site_id
_symmetry_equiv_pos_as_xyz
1 x,y,z
_cell_length_a                   3.55401
_cell_length_b                   16.5246
_cell_length_c                   9.4654
_cell_angle_alpha                90.0
_cell_angle_beta                 99.002
_cell_angle_gamma                90.0
loop_
_atom_site_label
_atom_site_type_symbol
_atom_site_fract_x
_atom_site_fract_y
_atom_site_fract_z
     1  N          0.95097000       0.43003700       0.14412120
     2  N          0.54903000       0.93003700       0.35587880
     3  N          0.04903000       0.56996300       0.85587880
     4  N          0.45097000       0.06996300       0.64412120
     5  C          0.81716000       0.49450800       0.21014150
     6  C          0.68284000      -0.00549200       0.28985850
     7  C          0.18284000       0.50549200       0.78985850
     8  C          0.31716000       0.00549200       0.71014150
     9  N          0.79206000       0.56353800       0.14028130
    10  N          0.70794000       0.06353800       0.35971870
    11  N          0.20794000       0.43646200       0.85971870
    12  N          0.29206000       0.93646200       0.64028130
    13  H          0.86086000       0.56601800       0.03959130
    14  H          0.63914000       0.06601800       0.46040870
    15  H          0.13914000       0.43398200       0.96040870
    16  H          0.36086000       0.93398200       0.53959130
    17  H          0.68336000       0.60571800       0.18089130
    18  H          0.81664000       0.10571800       0.31910870
    19  H          0.31664000       0.39428200       0.81910870
    20  H          0.18336000       0.89428200       0.68089130
    21  N          0.70767000       0.49345700       0.34079120
    22  N          0.79233000      -0.00654300       0.15920880
    23  N          0.29233000       0.50654300       0.65920880
    24  N          0.20767000       0.00654300       0.84079120
    25  C          0.75716000       0.42509800       0.41145150
    26  C          0.74284000       0.92509800       0.08854850
    27  C          0.24284000       0.57490200       0.58854850
    28  C          0.25716000       0.07490200       0.91145150
    29  H          0.67876000       0.42220800       0.50045150
    30  H          0.82124000       0.92220800      -0.00045150
    31  H          0.32124000       0.57779200       0.49954850
    32  H          0.17876000       0.07779200       0.00045150
    33  C          0.90366000       0.35744800       0.35386150
    34  C          0.59634000       0.85744800       0.14613850
    35  C          0.09634000       0.64255200       0.64613850
    36  C          0.40366000       0.14255200       0.85386150
    37  N         -0.02894000       0.28473700       0.43508140
    38  N          0.52894000       0.78473700       0.06491860
    39  N          0.02894000       0.71526300       0.56491860
    40  N          0.47106000       0.21526300       0.93508140
    41  O          0.10953000       0.22673600       0.38034130
    42  O          0.39047000       0.72673600       0.11965870
    43  O          0.89047000       0.77326400       0.61965870
    44  O          0.60953000       0.27326400       0.88034130
    45  O          0.89416000       0.28389700       0.55678130
    46  O          0.60584000       0.78389700       0.94321870
    47  O          0.10584000       0.71610300       0.44321870
    48  O          0.39416000       0.21610300       0.05678130
    49  C         -0.00924000       0.36195800       0.21664150
    50  C          0.50924000       0.86195800       0.28335850
    51  C          0.00924000       0.63804200       0.78335850
    52  C          0.49076000       0.13804200       0.71664150
    53  H          0.07194000       0.31530800       0.16060150
    54  H          0.42806000       0.81530800       0.33939850
    55  H          0.92806000       0.68469200       0.83939850
    56  H          0.57194000       0.18469200       0.66060150
