data_PUPBAD01
_symmetry_space_group_name_H-M    'P1'
_symmetry_Int_Tables_number       1
loop_
_symmetry_equiv_pos_site_id
_symmetry_equiv_pos_as_xyz
1 x,y,z
_cell_length_a                   5.128
_cell_length_b                   17.5002
_cell_length_c                   6.87201
_cell_angle_alpha                90.0
_cell_angle_beta                 104.37
_cell_angle_gamma                90.0
loop_
_atom_site_label
_atom_site_type_symbol
_atom_site_fract_x
_atom_site_fract_y
_atom_site_fract_z
     1  N          0.74935000       0.06879140       0.86106000
     2  N          0.25065000       0.56879140       0.63894000
     3  N          0.25065000       0.93120860       0.13894000
     4  N          0.74935000       0.43120860       0.36106000
     5  C          0.59544000       0.00662000       0.79116000
     6  C          0.40456000       0.50662000       0.70884000
     7  C          0.40456000      -0.00662000       0.20884000
     8  C          0.59544000       0.49338000       0.29116000
     9  N          0.70844000       0.93928860       0.84616000
    10  N          0.29156000       0.43928860       0.65384000
    11  N          0.29156000       0.06071140       0.15384000
    12  N          0.70844000       0.56071140       0.34616000
    13  H          0.87704000       0.93699860       0.92266000
    14  H          0.12296000       0.43699860       0.57734000
    15  H          0.12296000       0.06300140       0.07734000
    16  H          0.87704000       0.56300140       0.42266000
    17  H          0.62764000       0.89486860       0.83016000
    18  H          0.37236000       0.39486860       0.66984000
    19  H          0.37236000       0.10513140       0.16984000
    20  H          0.62764000       0.60513140       0.33016000
    21  N          0.34184000       0.00712000       0.67186000
    22  N          0.65816000       0.50712000       0.82814000
    23  N          0.65816000      -0.00712000       0.32814000
    24  N          0.34184000       0.49288000       0.17186000
    25  C          0.23703000       0.07572000       0.61615000
    26  C          0.76297000       0.57572000       0.88385000
    27  C          0.76297000       0.92428000       0.38385000
    28  C          0.23703000       0.42428000       0.11615000
    29  H          0.02463000       0.07452000       0.53195000
    30  H         -0.02463000       0.57452000       0.96805000
    31  H         -0.02463000       0.92548000       0.46805000
    32  H          0.02463000       0.42548000       0.03195000
    33  C          0.38173000       0.14122000       0.67945000
    34  C          0.61827000       0.64122000       0.82055000
    35  C          0.61827000       0.85878000       0.32055000
    36  C          0.38173000       0.35878000       0.17945000
    37  N          0.26712000       0.21582000       0.61925000
    38  N          0.73288000       0.71582000       0.88075000
    39  N          0.73288000       0.78418000       0.38075000
    40  N          0.26712000       0.28418000       0.11925000
    41  O          0.03753000       0.21812000       0.51394000
    42  O          0.96247000       0.71812000      -0.01394000
    43  O          0.96247000       0.78188000       0.48606000
    44  O          0.03753000       0.28188000       0.01394000
    45  O          0.40813000       0.27222000       0.67464000
    46  O          0.59187000       0.77222000       0.82536000
    47  O          0.59187000       0.72778000       0.32536000
    48  O          0.40813000       0.22778000       0.17464000
    49  C          0.63863000       0.13632000       0.80245000
    50  C          0.36137000       0.63632000       0.69755000
    51  C          0.36137000       0.86368000       0.19755000
    52  C          0.63863000       0.36368000       0.30245000
    53  H          0.75233000       0.19062000       0.84575000
    54  H          0.24767000       0.69062000       0.65425000
    55  H          0.24767000       0.80938000       0.15425000
    56  H          0.75233000       0.30938000       0.34575000
