data_PUPBAD
_symmetry_space_group_name_H-M    'P1'
_symmetry_Int_Tables_number       1
loop_
_symmetry_equiv_pos_site_id
_symmetry_equiv_pos_as_xyz
1 x,y,z
_cell_length_a                   4.16501
_cell_length_b                   6.65401
_cell_length_c                   21.2934
_cell_angle_alpha                90.0
_cell_angle_beta                 90.0
_cell_angle_gamma                90.0
loop_
_atom_site_label
_atom_site_type_symbol
_atom_site_fract_x
_atom_site_fract_y
_atom_site_fract_z
     1  N          0.25000000       0.25000000       0.98673200
     2  N          0.75000000       0.75000000       0.51326800
     3  N          0.75000000       0.75000000       0.01326800
     4  N          0.25000000       0.25000000       0.48673200
     5  H          0.14280000       0.34430000       0.97070200
     6  H          0.35720000       0.15570000       0.97070200
     7  H          0.85720000       0.84430000       0.52929800
     8  H          0.64280000       0.65570000       0.52929800
     9  H          0.85720000       0.65570000       0.02929800
    10  H          0.64280000       0.84430000       0.02929800
    11  H          0.14280000       0.15570000       0.47070200
    12  H          0.35720000       0.34430000       0.47070200
    13  C          0.25000000       0.25000000       0.04880900
    14  C          0.75000000       0.75000000       0.45119100
    15  C          0.75000000       0.75000000       0.95119100
    16  C          0.25000000       0.25000000       0.54880900
    17  N          0.09263000       0.40342000       0.07839500
    18  N          0.40737000       0.09658000       0.07839500
    19  N          0.90737000       0.90342000       0.42160500
    20  N          0.59263000       0.59658000       0.42160500
    21  N          0.90737000       0.59658000       0.92160500
    22  N          0.59263000       0.90342000       0.92160500
    23  N          0.09263000       0.09658000       0.57839500
    24  N          0.40737000       0.40342000       0.57839500
    25  C          0.09354000       0.39972000       0.14066600
    26  C          0.40646000       0.10028000       0.14066600
    27  C          0.90646000       0.89972000       0.35933400
    28  C          0.59354000       0.60028000       0.35933400
    29  C          0.90646000       0.60028000       0.85933400
    30  C          0.59354000       0.89972000       0.85933400
    31  C          0.09354000       0.10028000       0.64066600
    32  C          0.40646000       0.39972000       0.64066600
    33  H         -0.02394000       0.50192000       0.16001600
    34  H          0.52394000      -0.00192000       0.16001600
    35  H          0.02394000       0.00192000       0.33998400
    36  H          0.47606000       0.49808000       0.33998400
    37  H          0.02394000       0.49808000       0.83998400
    38  H          0.47606000       0.00192000       0.83998400
    39  H         -0.02394000      -0.00192000       0.66001600
    40  H          0.52394000       0.50192000       0.66001600
    41  C          0.25000000       0.25000000       0.17365800
    42  C          0.75000000       0.75000000       0.32634200
    43  C          0.75000000       0.75000000       0.82634200
    44  C          0.25000000       0.25000000       0.67365800
    45  N          0.25000000       0.25000000       0.24155700
    46  N          0.75000000       0.75000000       0.25844300
    47  N          0.75000000       0.75000000       0.75844300
    48  N          0.25000000       0.25000000       0.74155700
    49  O          0.05322000       0.35632000       0.26905400
    50  O          0.44678000       0.14368000       0.26905400
    51  O          0.94678000       0.85632000       0.23094600
    52  O          0.55322000       0.64368000       0.23094600
    53  O          0.94678000       0.64368000       0.73094600
    54  O          0.55322000       0.85632000       0.73094600
    55  O          0.05322000       0.14368000       0.76905400
    56  O          0.44678000       0.35632000       0.76905400
