data_PUQYOQ
_symmetry_space_group_name_H-M    'P1'
_symmetry_Int_Tables_number       1
loop_
_symmetry_equiv_pos_site_id
_symmetry_equiv_pos_as_xyz
1 x,y,z
_cell_length_a                   26.81027
_cell_length_b                   5.43332
_cell_length_c                   17.70905
_cell_angle_alpha                90.0
_cell_angle_beta                 107.092
_cell_angle_gamma                90.0
loop_
_atom_site_label
_atom_site_type_symbol
_atom_site_fract_x
_atom_site_fract_y
_atom_site_fract_z
     1  S          0.21452314       0.18856800       0.17709200
     2  S          0.78547686       0.18856800       0.32290800
     3  S          0.71452314       0.68856800       0.17709200
     4  S          0.28547686       0.68856800       0.32290800
     5  S          0.78547686       0.81143200       0.82290800
     6  S          0.21452314       0.81143200       0.67709200
     7  S          0.28547686       0.31143200       0.82290800
     8  S          0.71452314       0.31143200       0.67709200
     9  O          0.04496400       0.73158000       0.04480700
    10  O          0.95503600       0.73158000       0.45519300
    11  O          0.54496400       0.23158000       0.04480700
    12  O          0.45503600       0.23158000       0.45519300
    13  O          0.95503600       0.26842000       0.95519300
    14  O          0.04496400       0.26842000       0.54480700
    15  O          0.45503600       0.76842000       0.95519300
    16  O          0.54496400       0.76842000       0.54480700
    17  N          0.01510500      -0.00223000       0.12243800
    18  N          0.98489500      -0.00223000       0.37756200
    19  N          0.51510500       0.49777000       0.12243800
    20  N          0.48489500       0.49777000       0.37756200
    21  N          0.98489500       0.00223000       0.87756200
    22  N          0.01510500       0.00223000       0.62243800
    23  N          0.48489500       0.50223000       0.87756200
    24  N          0.51510500       0.50223000       0.62243800
    25  N          0.96161500       0.69587000       0.04726800
    26  N          0.03838500       0.69587000       0.45273200
    27  N          0.46161500       0.19587000       0.04726800
    28  N          0.53838500       0.19587000       0.45273200
    29  N          0.03838500       0.30413000       0.95273200
    30  N          0.96161500       0.30413000       0.54726800
    31  N          0.53838500       0.80413000       0.95273200
    32  N          0.46161500       0.80413000       0.54726800
    33  N          0.91298500       0.94547000       0.10852800
    34  N          0.08701500       0.94547000       0.39147200
    35  N          0.41298500       0.44547000       0.10852800
    36  N          0.58701500       0.44547000       0.39147200
    37  N          0.08701500       0.05453000       0.89147200
    38  N          0.91298500       0.05453000       0.60852800
    39  N          0.58701500       0.55453000       0.89147200
    40  N          0.41298500       0.55453000       0.60852800
    41  C          0.20826700       0.91157000       0.11927100
    42  C          0.79173300       0.91157000       0.38072900
    43  C          0.70826700       0.41157000       0.11927100
    44  C          0.29173300       0.41157000       0.38072900
    45  C          0.79173300       0.08843000       0.88072900
    46  C          0.20826700       0.08843000       0.61927100
    47  C          0.29173300       0.58843000       0.88072900
    48  C          0.70826700       0.58843000       0.61927100
    49  C          0.15072600       0.24263000       0.18294900
    50  C          0.84927400       0.24263000       0.31705100
    51  C          0.65072600       0.74263000       0.18294900
    52  C          0.34927400       0.74263000       0.31705100
    53  C          0.84927400       0.75737000       0.81705100
    54  C          0.15072600       0.75737000       0.68294900
    55  C          0.34927400       0.25737000       0.81705100
    56  C          0.65072600       0.25737000       0.68294900
    57  C          0.10890600       0.08863000       0.14768900
    58  C          0.89109400       0.08863000       0.35231100
    59  C          0.60890600       0.58863000       0.14768900
    60  C          0.39109400       0.58863000       0.35231100
    61  C          0.89109400       0.91137000       0.85231100
    62  C          0.10890600       0.91137000       0.64768900
    63  C          0.39109400       0.41137000       0.85231100
    64  C          0.60890600       0.41137000       0.64768900
    65  C          0.05945600       0.14473000       0.15444800
    66  C          0.94054400       0.14473000       0.34555200
    67  C          0.55945600       0.64473000       0.15444800
    68  C          0.44054400       0.64473000       0.34555200
    69  C          0.94054400       0.85527000       0.84555200
    70  C          0.05945600       0.85527000       0.65444800
    71  C          0.44054400       0.35527000       0.84555200
    72  C          0.55945600       0.35527000       0.65444800
    73  C          0.05244600       0.35313000       0.19604900
    74  C          0.94755400       0.35313000       0.30395100
    75  C          0.55244600       0.85313000       0.19604900
    76  C          0.44755400       0.85313000       0.30395100
    77  C          0.94755400       0.64687000       0.80395100
    78  C          0.05244600       0.64687000       0.69604900
    79  C          0.44755400       0.14687000       0.80395100
    80  C          0.55244600       0.14687000       0.69604900
    81  C          0.09443600       0.50393000       0.23098900
    82  C          0.90556400       0.50393000       0.26901100
    83  C          0.59443600       0.00393000       0.23098900
    84  C          0.40556400       0.00393000       0.26901100
    85  C          0.90556400       0.49607000       0.76901100
    86  C          0.09443600       0.49607000       0.73098900
    87  C          0.40556400      -0.00393000       0.76901100
    88  C          0.59443600      -0.00393000       0.73098900
    89  C          0.14394600       0.45103000       0.22512900
    90  C          0.85605400       0.45103000       0.27487100
    91  C          0.64394600       0.95103000       0.22512900
    92  C          0.35605400       0.95103000       0.27487100
    93  C          0.85605400       0.54897000       0.77487100
    94  C          0.14394600       0.54897000       0.72512900
    95  C          0.35605400       0.04897000       0.77487100
    96  C          0.64394600       0.04897000       0.72512900
    97  C          0.01005600       0.80867000       0.07104900
    98  C          0.98994400       0.80867000       0.42895100
    99  C          0.51005600       0.30867000       0.07104900
   100  C          0.48994400       0.30867000       0.42895100
   101  C          0.98994400       0.19133000       0.92895100
   102  C          0.01005600       0.19133000       0.57104900
   103  C          0.48994400       0.69133000       0.92895100
   104  C          0.51005600       0.69133000       0.57104900
   105  C          0.91505400       0.75227000       0.06316900
   106  C          0.08494600       0.75227000       0.43683100
   107  C          0.41505400       0.25227000       0.06316900
   108  C          0.58494600       0.25227000       0.43683100
   109  C          0.08494600       0.24773000       0.93683100
   110  C          0.91505400       0.24773000       0.56316900
   111  C          0.58494600       0.74773000       0.93683100
   112  C          0.41505400       0.74773000       0.56316900
   113  C          0.87184400       0.59927000       0.02961900
   114  C          0.12815600       0.59927000       0.47038100
   115  C          0.37184400       0.09927000       0.02961900
   116  C          0.62815600       0.09927000       0.47038100
   117  C          0.12815600       0.40073000       0.97038100
   118  C          0.87184400       0.40073000       0.52961900
   119  C          0.62815600       0.90073000       0.97038100
   120  C          0.37184400       0.90073000       0.52961900
   121  C          0.82550400       0.65197000       0.04497100
   122  C          0.17449600       0.65197000       0.45502900
   123  C          0.32550400       0.15197000       0.04497100
   124  C          0.67449600       0.15197000       0.45502900
   125  C          0.17449600       0.34803000       0.95502900
   126  C          0.82550400       0.34803000       0.54497100
   127  C          0.67449600       0.84803000       0.95502900
   128  C          0.32550400       0.84803000       0.54497100
   129  C          0.82280400       0.85347000       0.09255100
   130  C          0.17719600       0.85347000       0.40744900
   131  C          0.32280400       0.35347000       0.09255100
   132  C          0.67719600       0.35347000       0.40744900
   133  C          0.17719600       0.14653000       0.90744900
   134  C          0.82280400       0.14653000       0.59255100
   135  C          0.67719600       0.64653000       0.90744900
   136  C          0.32280400       0.64653000       0.59255100
   137  C          0.86701400      -0.00663000       0.12269900
   138  C          0.13298600      -0.00663000       0.37730100
   139  C          0.36701400       0.49337000       0.12269900
   140  C          0.63298600       0.49337000       0.37730100
   141  C          0.13298600       0.00663000       0.87730100
   142  C          0.86701400       0.00663000       0.62269900
   143  C          0.63298600       0.50663000       0.87730100
   144  C          0.36701400       0.50663000       0.62269900
   145  H          0.98622000       0.04140000       0.13331100
   146  H          0.01378000       0.04140000       0.36668900
   147  H          0.48622000       0.54140000       0.13331100
   148  H          0.51378000       0.54140000       0.36668900
   149  H          0.01378000       0.95860000       0.86668900
   150  H          0.98622000       0.95860000       0.63331100
   151  H          0.51378000       0.45860000       0.86668900
   152  H          0.48622000       0.45860000       0.63331100
   153  H          0.95932000       0.57050000       0.01641300
   154  H          0.04068000       0.57050000       0.48358700
   155  H          0.45932000       0.07050000       0.01641300
   156  H          0.54068000       0.07050000       0.48358700
   157  H          0.04068000       0.42950000       0.98358700
   158  H          0.95932000       0.42950000       0.51641300
   159  H          0.54068000       0.92950000       0.98358700
   160  H          0.45932000       0.92950000       0.51641300
   161  H          0.18608000       0.93960000       0.06791200
   162  H          0.81392000       0.93960000       0.43208800
   163  H          0.68608000       0.43960000       0.06791200
   164  H          0.31392000       0.43960000       0.43208800
   165  H          0.81392000       0.06040000       0.93208800
   166  H          0.18608000       0.06040000       0.56791200
   167  H          0.31392000       0.56040000       0.93208800
   168  H          0.68608000       0.56040000       0.56791200
   169  H          0.19619000       0.76860000       0.14261300
   170  H          0.80381000       0.76860000       0.35738700
   171  H          0.69619000       0.26860000       0.14261300
   172  H          0.30381000       0.26860000       0.35738700
   173  H          0.80381000       0.23140000       0.85738700
   174  H          0.19619000       0.23140000       0.64261300
   175  H          0.30381000       0.73140000       0.85738700
   176  H          0.69619000       0.73140000       0.64261300
   177  H          0.24459000       0.87160000       0.11731300
   178  H          0.75541000       0.87160000       0.38268700
   179  H          0.74459000       0.37160000       0.11731300
   180  H          0.25541000       0.37160000       0.38268700
   181  H          0.75541000       0.12840000       0.88268700
   182  H          0.24459000       0.12840000       0.61731300
   183  H          0.25541000       0.62840000       0.88268700
   184  H          0.74459000       0.62840000       0.61731300
   185  H          0.11368000       0.94460000       0.11951200
   186  H          0.88632000       0.94460000       0.38048800
   187  H          0.61368000       0.44460000       0.11951200
   188  H          0.38632000       0.44460000       0.38048800
   189  H          0.88632000       0.05540000       0.88048800
   190  H          0.11368000       0.05540000       0.61951200
   191  H          0.38632000       0.55540000       0.88048800
   192  H          0.61368000       0.55540000       0.61951200
   193  H          0.01897000       0.39040000       0.19691100
   194  H          0.98103000       0.39040000       0.30308900
   195  H          0.51897000       0.89040000       0.19691100
   196  H          0.48103000       0.89040000       0.30308900
   197  H          0.98103000       0.60960000       0.80308900
   198  H          0.01897000       0.60960000       0.69691100
   199  H          0.48103000       0.10960000       0.80308900
   200  H          0.51897000       0.10960000       0.69691100
   201  H          0.08957000       0.64540000       0.25841100
   202  H          0.91043000       0.64540000       0.24158900
   203  H          0.58957000       0.14540000       0.25841100
   204  H          0.41043000       0.14540000       0.24158900
   205  H          0.91043000       0.35460000       0.74158900
   206  H          0.08957000       0.35460000       0.75841100
   207  H          0.41043000       0.85460000       0.74158900
   208  H          0.58957000       0.85460000       0.75841100
   209  H          0.17267000       0.55940000       0.24981100
   210  H          0.82733000       0.55940000       0.25018900
   211  H          0.67267000       0.05940000       0.24981100
   212  H          0.32733000       0.05940000       0.25018900
   213  H          0.82733000       0.44060000       0.75018900
   214  H          0.17267000       0.44060000       0.74981100
   215  H          0.32733000       0.94060000       0.75018900
   216  H          0.67267000       0.94060000       0.74981100
   217  H          0.87572000       0.46560000      -0.00341200
   218  H          0.12428000       0.46560000       0.50341200
   219  H          0.37572000       0.96560000      -0.00341200
   220  H          0.62428000       0.96560000       0.50341200
   221  H          0.12428000       0.53440000       0.00341200
   222  H          0.87572000       0.53440000       0.49658800
   223  H          0.62428000       0.03440000       0.00341200
   224  H          0.37572000       0.03440000       0.49658800
   225  H          0.79551000       0.54960000       0.02181300
   226  H          0.20449000       0.54960000       0.47818700
   227  H          0.29551000       0.04960000       0.02181300
   228  H          0.70449000       0.04960000       0.47818700
   229  H          0.20449000       0.45040000       0.97818700
   230  H          0.79551000       0.45040000       0.52181300
   231  H          0.70449000       0.95040000       0.97818700
   232  H          0.29551000       0.95040000       0.52181300
   233  H          0.79121000       0.89060000       0.10421300
   234  H          0.20879000       0.89060000       0.39578700
   235  H          0.29121000       0.39060000       0.10421300
   236  H          0.70879000       0.39060000       0.39578700
   237  H          0.20879000       0.10940000       0.89578700
   238  H          0.79121000       0.10940000       0.60421300
   239  H          0.70879000       0.60940000       0.89578700
   240  H          0.29121000       0.60940000       0.60421300
   241  H          0.86662000       0.13740000       0.15701200
   242  H          0.13338000       0.13740000       0.34298800
   243  H          0.36662000       0.63740000       0.15701200
   244  H          0.63338000       0.63740000       0.34298800
   245  H          0.13338000       0.86260000       0.84298800
   246  H          0.86662000       0.86260000       0.65701200
   247  H          0.63338000       0.36260000       0.84298800
   248  H          0.36662000       0.36260000       0.65701200
