data_PUQYOQ01
_symmetry_space_group_name_H-M    'P1'
_symmetry_Int_Tables_number       1
loop_
_symmetry_equiv_pos_site_id
_symmetry_equiv_pos_as_xyz
1 x,y,z
_cell_length_a                   5.48623
_cell_length_b                   13.93888
_cell_length_c                   16.19599
_cell_angle_alpha                90.0
_cell_angle_beta                 93.592
_cell_angle_gamma                90.0
loop_
_atom_site_label
_atom_site_type_symbol
_atom_site_fract_x
_atom_site_fract_y
_atom_site_fract_z
     1  S          0.20018800       0.62706300       0.40054300
     2  S          0.29981200       0.12706300       0.09945700
     3  S          0.79981200       0.37293700       0.59945700
     4  S          0.70018800       0.87293700       0.90054300
     5  O          0.08292000       0.50259800       0.10673700
     6  O          0.41708000       0.00259800       0.39326300
     7  O          0.91708000       0.49740200       0.89326300
     8  O          0.58292000      -0.00259800       0.60673700
     9  N          0.44523000       0.42760100       0.14356800
    10  N          0.05477000       0.92760100       0.35643200
    11  N          0.55477000       0.57239900       0.85643200
    12  N          0.94523000       0.07239900       0.64356800
    13  N          0.26952000       0.41958900       0.00938800
    14  N          0.23048000       0.91958900       0.49061200
    15  N          0.73048000       0.58041100       0.99061200
    16  N          0.76952000       0.08041100       0.50938800
    17  N          0.62672000       0.32520900       0.01879800
    18  N          0.87328000       0.82520900       0.48120200
    19  N          0.37328000       0.67479100       0.98120200
    20  N          0.12672000       0.17479100       0.51879800
    21  C         -0.01543000       0.67008130       0.32043110
    22  C          0.51543000       0.17008130       0.17956890
    23  C          0.01543000       0.32991870       0.67956890
    24  C          0.48457000       0.82991870       0.82043110
    25  C          0.38233000       0.54474110       0.34795100
    26  C          0.11767000       0.04474110       0.15204900
    27  C          0.61767000       0.45525890       0.65204900
    28  C          0.88233000       0.95525890       0.84795100
    29  C          0.32633000       0.51780110       0.26595100
    30  C          0.17367000       0.01780110       0.23404900
    31  C          0.67367000       0.48219890       0.73404900
    32  C          0.82633000       0.98219890       0.76595100
    33  C          0.48233000       0.45520110       0.22710900
    34  C          0.01767000       0.95520110       0.27289100
    35  C          0.51767000       0.54479890       0.77289100
    36  C         -0.01767000       0.04479890       0.72710900
    37  C          0.68903000       0.41845110       0.27139100
    38  C          0.81097000       0.91845110       0.22860900
    39  C          0.31097000       0.58154890       0.72860900
    40  C          0.18903000       0.08154890       0.77139100
    41  C          0.73843000       0.44422120       0.35356100
    42  C          0.76157000       0.94422120       0.14643900
    43  C          0.26157000       0.55577880       0.64643900
    44  C          0.23843000       0.05577880       0.85356100
    45  C          0.58713000       0.50747120       0.39225100
    46  C          0.91287000       0.00747120       0.10774900
    47  C          0.41287000       0.49252880       0.60774900
    48  C          0.08713000      -0.00747120       0.89225100
    49  C          0.25833000       0.45286110       0.08934900
    50  C          0.24167000       0.95286110       0.41065100
    51  C          0.74167000       0.54713890       0.91065100
    52  C          0.75833000       0.04713890       0.58934900
    53  C          0.43693000       0.36019100       0.97291100
    54  C          0.06307000       0.86019100       0.52708900
    55  C          0.56307000       0.63980900       0.02708900
    56  C          0.93693000       0.13980900       0.47291100
    57  C          0.39373000       0.33991110       0.88829900
    58  C          0.10627000       0.83991110       0.61170100
    59  C          0.60627000       0.66008890       0.11170100
    60  C          0.89373000       0.16008890       0.38829900
    61  C          0.55673000       0.28132120       0.85145900
    62  C          0.94327000       0.78132120       0.64854100
    63  C          0.44327000       0.71867880       0.14854100
    64  C          0.05673000       0.21867880       0.35145900
    65  C          0.75443000       0.24284120       0.89816890
    66  C          0.74557000       0.74284120       0.60183110
    67  C          0.24557000       0.75715880       0.10183110
    68  C          0.25443000       0.25715880       0.39816890
    69  C          0.78243000       0.26724110       0.98066890
    70  C          0.71757000       0.76724110       0.51933110
    71  C          0.21757000       0.73275890       0.01933110
    72  C          0.28243000       0.23275890       0.48066890
    73  H          0.54340000       0.39551600       0.12461400
    74  H          0.95660000       0.89551600       0.37538600
    75  H          0.45660000       0.60448400       0.87538600
    76  H          0.04340000       0.10448400       0.62461400
    77  H          0.15040000       0.44291400       0.97378700
    78  H          0.34960000       0.94291400       0.52621300
    79  H          0.84960000       0.55708600       0.02621300
    80  H          0.65040000       0.05708600       0.47378700
    81  H          0.89060000       0.61341400       0.29711300
    82  H          0.60940000       0.11341400       0.20288700
    83  H          0.10940000       0.38658600       0.70288700
    84  H          0.39060000       0.88658600       0.79711300
    85  H          0.87460000       0.71291600       0.34541300
    86  H          0.62540000       0.21291600       0.15458700
    87  H          0.12540000       0.28708400       0.65458700
    88  H          0.37460000       0.78708400       0.84541300
    89  H          0.07740000       0.70861500       0.27691300
    90  H          0.42260000       0.20861500       0.22308700
    91  H          0.92260000       0.29138500       0.72308700
    92  H          0.57740000       0.79138500       0.77691300
    93  H          0.18730000       0.54241200       0.23531100
    94  H          0.31270000       0.04241200       0.26468900
    95  H          0.81270000       0.45758800       0.76468900
    96  H          0.68730000       0.95758800       0.73531100
    97  H          0.79030000       0.38061200       0.24081100
    98  H          0.70970000       0.88061200       0.25918900
    99  H          0.20970000       0.61938800       0.75918900
   100  H          0.29030000       0.11938800       0.74081100
   101  H          0.88530000       0.42131300       0.38551200
   102  H          0.61470000       0.92131300       0.11448800
   103  H          0.11470000       0.57868700       0.61448800
   104  H          0.38530000       0.07868700       0.88551200
   105  H          0.62930000       0.53031300       0.44661300
   106  H          0.87070000       0.03031300       0.05338700
   107  H          0.37070000       0.46968700       0.55338700
   108  H          0.12930000       0.96968700       0.94661300
   109  H          0.25130000       0.36891200       0.85868900
   110  H          0.24870000       0.86891200       0.64131100
   111  H          0.74870000       0.63108800       0.14131100
   112  H          0.75130000       0.13108800       0.35868900
   113  H          0.53830000       0.26911300       0.79278800
   114  H          0.96170000       0.76911300       0.70721200
   115  H          0.46170000       0.73088700       0.20721200
   116  H          0.03830000       0.23088700       0.29278800
   117  H          0.87030000       0.20501300       0.87408900
   118  H          0.62970000       0.70501300       0.62591100
   119  H          0.12970000       0.79498700       0.12591100
   120  H          0.37030000       0.29498700       0.37408900
   121  H          0.90740000       0.24031300       0.01521100
   122  H          0.59260000       0.74031300       0.48478900
   123  H          0.09260000       0.75968700       0.98478900
   124  H          0.40740000       0.25968700       0.51521100
