data_PUQYOQ03
_symmetry_space_group_name_H-M    'P1'
_symmetry_Int_Tables_number       1
loop_
_symmetry_equiv_pos_site_id
_symmetry_equiv_pos_as_xyz
1 x,y,z
_cell_length_a                   11.59684
_cell_length_b                   5.31742
_cell_length_c                   20.28748
_cell_angle_alpha                90.0
_cell_angle_beta                 93.452
_cell_angle_gamma                90.0
loop_
_atom_site_label
_atom_site_type_symbol
_atom_site_fract_x
_atom_site_fract_y
_atom_site_fract_z
     1  S          0.95477400       0.08866900       0.09920200
     2  S          0.54522600       0.58866900       0.40079800
     3  S          0.04522600       0.91133100       0.90079800
     4  S          0.45477400       0.41133100       0.59920200
     5  O          0.94134110       0.31623000       0.43439600
     6  O          0.55865890       0.81623000       0.06560400
     7  O          0.05865890       0.68377000       0.56560400
     8  O          0.44134110       0.18377000       0.93439600
     9  N          0.01838120       0.39183000       0.33472700
    10  N          0.48161880       0.89183000       0.16527300
    11  N          0.98161880       0.60817000       0.66527300
    12  N          0.51838120       0.10817000       0.83472700
    13  N          0.07125130       0.62963000       0.42768700
    14  N          0.42874870       0.12963000       0.07231300
    15  N          0.92874870       0.37037000       0.57231300
    16  N          0.57125130       0.87037000       0.92768700
    17  N          0.17125120       0.77843000       0.33739700
    18  N          0.32874880       0.27843000       0.16260300
    19  N          0.82874880       0.22157000       0.66260300
    20  N          0.67125120       0.72157000       0.83739700
    21  C          0.87782000       0.83206000       0.05935100
    22  C          0.62218000       0.33206000       0.44064900
    23  C          0.12218000       0.16794000       0.94064900
    24  C          0.37782000       0.66794000       0.55935100
    25  C          0.93042140       0.04353000       0.18349800
    26  C          0.56957860       0.54353000       0.31650200
    27  C          0.06957860       0.95647000       0.81650200
    28  C          0.43042140       0.45647000       0.68349800
    29  C          0.97735140       0.22333000       0.22725800
    30  C          0.52264860       0.72333000       0.27274200
    31  C          0.02264860       0.77667000       0.77274200
    32  C          0.47735140       0.27667000       0.72725800
    33  C          0.96251130       0.20623000       0.29485800
    34  C          0.53748870       0.70623000       0.20514200
    35  C          0.03748870       0.79377000       0.70514200
    36  C          0.46251130       0.29377000       0.79485800
    37  C          0.89770150       0.00893000       0.31903800
    38  C          0.60229850       0.50893000       0.18096200
    39  C          0.10229850      -0.00893000       0.68096200
    40  C          0.39770150       0.49107000       0.81903800
    41  C          0.85135150       0.83127000       0.27499900
    42  C          0.64864850       0.33127000       0.22500100
    43  C          0.14864850       0.16873000       0.72500100
    44  C          0.35135150       0.66873000       0.77499900
    45  C          0.86721140       0.84377000       0.20756900
    46  C          0.63278860       0.34377000       0.29243100
    47  C          0.13278860       0.15623000       0.79243100
    48  C          0.36721140       0.65623000       0.70756900
    49  C          0.00600150       0.43523000       0.39957800
    50  C          0.49399850       0.93523000       0.10042200
    51  C         -0.00600150       0.56477000       0.60042200
    52  C          0.50600150       0.06477000       0.89957800
    53  C          0.14833140       0.79653000       0.40094800
    54  C          0.35166860       0.29653000       0.09905200
    55  C          0.85166860       0.20347000       0.59905200
    56  C          0.64833140       0.70347000       0.90094800
    57  C          0.19880150      -0.01867000       0.44349800
    58  C          0.30119850       0.48133000       0.05650200
    59  C          0.80119850       0.01867000       0.55650200
    60  C          0.69880150       0.51867000       0.94349800
    61  C          0.27568160       0.14693000       0.41833900
    62  C          0.22431840       0.64693000       0.08166100
    63  C          0.72431840       0.85307000       0.58166100
    64  C          0.77568160       0.35307000       0.91833900
    65  C          0.29994150       0.13113000       0.35208900
    66  C          0.20005850       0.63113000       0.14791100
    67  C          0.70005850       0.86887000       0.64791100
    68  C          0.79994150       0.36887000       0.85208900
    69  C          0.24538150       0.94653000       0.31393800
    70  C          0.25461850       0.44653000       0.18606200
    71  C          0.75461850       0.05347000       0.68606200
    72  C          0.74538150       0.55347000       0.81393800
    73  H          0.06341900       0.49440000       0.31601100
    74  H          0.43658100      -0.00560000       0.18398900
    75  H          0.93658100       0.50560000       0.68398900
    76  H          0.56341900       0.00560000       0.81601100
    77  H          0.88820000       0.84660000       0.01071200
    78  H          0.61180000       0.34660000       0.48928800
    79  H          0.11180000       0.15340000       0.98928800
    80  H          0.38820000       0.65340000       0.51071200
    81  H          0.91120000       0.67450000       0.07481100
    82  H          0.58880000       0.17450000       0.42518900
    83  H          0.08880000       0.32550000       0.92518900
    84  H          0.41120000       0.82550000       0.57481100
    85  H          0.79720000       0.83750000       0.06751200
    86  H          0.70280000       0.33750000       0.43248800
    87  H          0.20280000       0.16250000       0.93248800
    88  H          0.29720000       0.66250000       0.56751200
    89  H          0.06531900       0.65040000       0.46981100
    90  H          0.43468100       0.15040000       0.03018900
    91  H          0.93468100       0.34960000       0.53018900
    92  H          0.56531900       0.84960000       0.96981100
    93  H          0.01911700       0.36640000       0.21261000
    94  H          0.48088300       0.86640000       0.28739000
    95  H          0.98088300       0.63360000       0.78739000
    96  H          0.51911700       0.13360000       0.71261000
    97  H          0.88741700      -0.00840000       0.36461100
    98  H          0.61258300       0.49160000       0.13538900
    99  H          0.11258300       0.00840000       0.63538900
   100  H          0.38741700       0.50840000       0.86461100
   101  H          0.81111700       0.70160000       0.29031000
   102  H          0.68888300       0.20160000       0.20969000
   103  H          0.18888300       0.29840000       0.70969000
   104  H          0.31111700       0.79840000       0.79031000
   105  H          0.83391900       0.71360000       0.17921000
   106  H          0.66608100       0.21360000       0.32079000
   107  H          0.16608100       0.28640000       0.82079000
   108  H          0.33391900       0.78640000       0.67921000
   109  H          0.17641700      -0.00560000       0.48841000
   110  H          0.32358300       0.49440000       0.01159000
   111  H          0.82358300       0.00560000       0.51159000
   112  H          0.67641700       0.50560000       0.98841000
   113  H          0.31020000       0.27950000       0.44591200
   114  H          0.18980000       0.77950000       0.05408800
   115  H          0.68980000       0.72050000       0.55408800
   116  H          0.81020000       0.22050000       0.94591200
   117  H          0.35320000       0.24240000       0.33351100
   118  H          0.14680000       0.74240000       0.16648900
   119  H          0.64680000       0.75760000       0.66648900
   120  H          0.85320000       0.25760000       0.83351100
   121  H          0.26151700       0.92540000       0.26721000
   122  H          0.23848300       0.42540000       0.23279000
   123  H          0.73848300       0.07460000       0.73279000
   124  H          0.76151700       0.57460000       0.76721000
