data_PUQYOQ02
_symmetry_space_group_name_H-M    'P1'
_symmetry_Int_Tables_number       1
loop_
_symmetry_equiv_pos_site_id
_symmetry_equiv_pos_as_xyz
1 x,y,z
_cell_length_a                   17.232014
_cell_length_b                   5.48304
_cell_length_c                   26.4782
_cell_angle_alpha                90.0
_cell_angle_beta                 90.0
_cell_angle_gamma                90.0
loop_
_atom_site_label
_atom_site_type_symbol
_atom_site_fract_x
_atom_site_fract_y
_atom_site_fract_z
     1  S          0.29827110       0.45063000       0.23272500
     2  S          0.70172890       0.54937000       0.73272500
     3  S          0.79827110       0.54937000       0.23272500
     4  S          0.20172890       0.45063000       0.73272500
     5  O          0.18635180       0.34506000       0.05807120
     6  O          0.81364820       0.65494000       0.55807120
     7  O          0.68635180       0.65494000       0.05807120
     8  O          0.31364820       0.34506000       0.55807120
     9  N          0.25452000       0.69717000       0.04366140
    10  N          0.74548000       0.30283000       0.54366140
    11  N          0.75452000       0.30283000       0.04366140
    12  N          0.24548000       0.69717000       0.54366140
    13  N          0.17814000       0.52057000       0.98158000
    14  N          0.82186000       0.47943000       0.48158000
    15  N          0.67814000       0.47943000       0.98158000
    16  N          0.32186000       0.52057000       0.48158000
    17  N          0.23652000       0.87577000       0.94961860
    18  N          0.76348000       0.12423000       0.44961860
    19  N          0.73652000       0.12423000       0.94961860
    20  N          0.26348000       0.87577000       0.44961860
    21  C          0.22513000       0.23539000       0.21396190
    22  C          0.77487000       0.76461000       0.71396190
    23  C          0.72513000       0.76461000       0.21396190
    24  C          0.27487000       0.23539000       0.71396190
    25  C          0.31483000       0.63008000       0.17852170
    26  C          0.68517000       0.36992000       0.67852170
    27  C          0.81483000       0.36992000       0.17852170
    28  C          0.18517000       0.63008000       0.67852170
    29  C          0.27833000       0.58121000       0.13202000
    30  C          0.72167000       0.41879000       0.63202000
    31  C          0.77833000       0.41879000       0.13202000
    32  C          0.22167000       0.58121000       0.63202000
    33  C          0.29072000       0.73358000       0.09131160
    34  C          0.70928000       0.26642000       0.59131160
    35  C          0.79072000       0.26642000       0.09131160
    36  C          0.20928000       0.73358000       0.59131160
    37  C          0.33883000       0.93749000       0.09602000
    38  C          0.66117000       0.06251000       0.59602000
    39  C          0.83883000       0.06251000       0.09602000
    40  C          0.16117000       0.93749000       0.59602000
    41  C          0.37644000      -0.02091000       0.14213000
    42  C          0.62356000       0.02091000       0.64213000
    43  C          0.87644000       0.02091000       0.14213000
    44  C          0.12356000      -0.02091000       0.64213000
    45  C          0.36393000       0.82709000       0.18257180
    46  C          0.63607000       0.17291000       0.68257180
    47  C          0.86393000       0.17291000       0.18257180
    48  C          0.13607000       0.82709000       0.68257180
    49  C          0.20514000       0.51528000       0.02983000
    50  C          0.79486000       0.48472000       0.52983000
    51  C          0.70514000       0.48472000       0.02983000
    52  C          0.29486000       0.51528000       0.52983000
    53  C          0.19202000       0.68258000       0.94187830
    54  C          0.80798000       0.31742000       0.44187830
    55  C          0.69202000       0.31742000       0.94187830
    56  C          0.30798000       0.68258000       0.44187830
    57  C          0.15703000       0.62708000       0.89492820
    58  C          0.84297000       0.37292000       0.39492820
    59  C          0.65703000       0.37292000       0.89492820
    60  C          0.34297000       0.62708000       0.39492820
    61  C          0.17073000       0.78659000       0.85518820
    62  C          0.82927000       0.21341000       0.35518820
    63  C          0.67073000       0.21341000       0.85518820
    64  C          0.32927000       0.78659000       0.35518820
    65  C          0.21674000      -0.00962000       0.86327000
    66  C          0.78326000       0.00962000       0.36327000
    67  C          0.71674000       0.00962000       0.86327000
    68  C          0.28326000      -0.00962000       0.36327000
    69  C          0.24875000       0.02749000       0.91027000
    70  C          0.75125000       0.97251000       0.41027000
    71  C          0.74875000       0.97251000       0.91027000
    72  C          0.25125000       0.02749000       0.41027000
    73  H          0.26430000       0.80980000       0.01931800
    74  H          0.73570000       0.19020000       0.51931800
    75  H          0.76430000       0.19020000       0.01931800
    76  H          0.23570000       0.80980000       0.51931800
    77  H          0.14830000       0.38890000       0.97778100
    78  H          0.85170000       0.61110000       0.47778100
    79  H          0.64830000       0.61110000       0.97778100
    80  H          0.35170000       0.38890000       0.47778100
    81  H          0.17030000       0.35780000       0.20791700
    82  H          0.82970000       0.64220000       0.70791700
    83  H          0.67030000       0.64220000       0.20791700
    84  H          0.32970000       0.35780000       0.70791700
    85  H          0.24030000       0.12480000       0.18781600
    86  H          0.75970000       0.87520000       0.68781600
    87  H          0.74030000       0.87520000       0.18781600
    88  H          0.25970000       0.12480000       0.68781600
    89  H          0.22030000       0.13970000       0.25061700
    90  H          0.77970000       0.86030000       0.75061700
    91  H          0.72030000       0.86030000       0.25061700
    92  H          0.27970000       0.13970000       0.75061700
    93  H          0.24530000       0.40190000       0.13120000
    94  H          0.75470000       0.59810000       0.63120000
    95  H          0.74530000       0.59810000       0.13120000
    96  H          0.25470000       0.40190000       0.63120000
    97  H          0.34230000       0.05280000       0.07120000
    98  H          0.65770000       0.94720000       0.57120000
    99  H          0.84230000       0.94720000       0.07120000
   100  H          0.15770000       0.05280000       0.57120000
   101  H          0.40730000       0.11680000       0.14441700
   102  H          0.59270000       0.88320000       0.64441700
   103  H          0.90730000       0.88320000       0.14441700
   104  H          0.09270000       0.11680000       0.64441700
   105  H          0.39330000       0.86280000       0.21491800
   106  H          0.60670000       0.13720000       0.71491800
   107  H          0.89330000       0.13720000       0.21491800
   108  H          0.10670000       0.86280000       0.71491800
   109  H          0.11940000       0.45780000       0.89480000
   110  H          0.88060000       0.54220000       0.39480000
   111  H          0.61940000       0.54220000       0.89480000
   112  H          0.38060000       0.45780000       0.39480000
   113  H          0.14630000       0.74980000       0.81838300
   114  H          0.85370000       0.25020000       0.31838300
   115  H          0.64630000       0.25020000       0.81838300
   116  H          0.35370000       0.74980000       0.31838300
   117  H          0.22730000       0.14180000       0.83178300
   118  H          0.77270000       0.85820000       0.33178300
   119  H          0.72730000       0.85820000       0.83178300
   120  H          0.27270000       0.14180000       0.33178300
   121  H          0.28030000       0.18780000       0.91748200
   122  H          0.71970000       0.81220000       0.41748200
   123  H          0.78030000       0.81220000       0.91748200
   124  H          0.21970000       0.18780000       0.41748200
   125  S          0.94957890      -0.01722000       0.78062500
   126  S          0.05042110       0.01722000       0.28062500
   127  S          0.44957890       0.01722000       0.78062500
   128  S          0.55042110      -0.01722000       0.28062500
   129  O          0.06337180       0.15945000       0.95616880
   130  O          0.93662820       0.84055000       0.45616880
   131  O          0.56337180       0.84055000       0.95616880
   132  O          0.43662820       0.15945000       0.45616880
   133  N         -0.00582000       0.81083000       0.97387850
   134  N          0.00582000       0.18917000       0.47387850
   135  N          0.49418000       0.18917000       0.97387850
   136  N          0.50582000       0.81083000       0.47387850
   137  N          0.07064000      -0.00317000       0.03472000
   138  N          0.92936000       0.00317000       0.53472000
   139  N          0.57064000       0.00317000       0.03472000
   140  N          0.42936000      -0.00317000       0.53472000
   141  N          0.01152000       0.64714000       0.06836140
   142  N          0.98848000       0.35286000       0.56836140
   143  N          0.51152000       0.35286000       0.06836140
   144  N          0.48848000       0.64714000       0.56836140
   145  C          0.02303000       0.20499000       0.79388000
   146  C          0.97697000       0.79501000       0.29388000
   147  C          0.52303000       0.79501000       0.79388000
   148  C          0.47697000       0.20499000       0.29388000
   149  C          0.93587000       0.82682000       0.83824840
   150  C          0.06413000       0.17318000       0.33824840
   151  C          0.43587000       0.17318000       0.83824840
   152  C          0.56413000       0.82682000       0.33824840
   153  C          0.97147000       0.89689000       0.88309820
   154  C          0.02853000       0.10311000       0.38309820
   155  C          0.47147000       0.10311000       0.88309820
   156  C          0.52853000       0.89689000       0.38309820
   157  C          0.95928000       0.75452000       0.92643830
   158  C          0.04072000       0.24548000       0.42643830
   159  C          0.45928000       0.24548000       0.92643830
   160  C          0.54072000       0.75452000       0.42643830
   161  C          0.91297000       0.54751000       0.92498000
   162  C          0.08703000       0.45249000       0.42498000
   163  C          0.41297000       0.45249000       0.92498000
   164  C          0.58703000       0.54751000       0.42498000
   165  C          0.87866000       0.48372000       0.88007000
   166  C          0.12134000       0.51628000       0.38007000
   167  C          0.37866000       0.51628000       0.88007000
   168  C          0.62134000       0.48372000       0.38007000
   169  C          0.88877000       0.61912000       0.83602810
   170  C          0.11123000       0.38088000       0.33602810
   171  C          0.38877000       0.38088000       0.83602810
   172  C          0.61123000       0.61912000       0.33602810
   173  C          0.04124000      -0.00428000       0.98478000
   174  C          0.95876000       0.00428000       0.48478000
   175  C          0.54124000       0.00428000       0.98478000
   176  C          0.45876000      -0.00428000       0.48478000
   177  C          0.05822000       0.84002000       0.07439160
   178  C          0.94178000       0.15998000       0.57439160
   179  C          0.55822000       0.15998000       0.07439160
   180  C          0.44178000       0.84002000       0.57439160
   181  C          0.09703000       0.88761000       0.12016170
   182  C          0.90297000       0.11239000       0.62016170
   183  C          0.59703000       0.11239000       0.12016170
   184  C          0.40297000       0.88761000       0.62016170
   185  C          0.08573000       0.73002000       0.15967190
   186  C          0.91427000       0.26998000       0.65967190
   187  C          0.58573000       0.26998000       0.15967190
   188  C          0.41427000       0.73002000       0.65967190
   189  C          0.03684000       0.53081000       0.15463000
   190  C          0.96316000       0.46919000       0.65463000
   191  C          0.53684000       0.46919000       0.15463000
   192  C          0.46316000       0.53081000       0.65463000
   193  C          0.00235000       0.49632000       0.10773000
   194  C         -0.00235000       0.50368000       0.60773000
   195  C          0.50235000       0.50368000       0.10773000
   196  C          0.49765000       0.49632000       0.60773000
   197  H          0.98570000       0.70310000       0.00291800
   198  H          0.01430000       0.29690000       0.50291800
   199  H          0.48570000       0.29690000       0.00291800
   200  H          0.51430000       0.70310000       0.50291800
   201  H          0.10130000       0.10990000       0.03820000
   202  H          0.89870000       0.89010000       0.53820000
   203  H          0.60130000       0.89010000       0.03820000
   204  H          0.39870000       0.10990000       0.53820000
   205  H          0.06330000       0.12390000       0.80358200
   206  H          0.93670000       0.87610000       0.30358200
   207  H          0.56330000       0.87610000       0.80358200
   208  H          0.43670000       0.12390000       0.30358200
   209  H          0.03330000       0.28580000       0.76298100
   210  H          0.96670000       0.71420000       0.26298100
   211  H          0.53330000       0.71420000       0.76298100
   212  H          0.46670000       0.28580000       0.26298100
   213  H          0.01530000       0.32990000       0.81678300
   214  H          0.98470000       0.67010000       0.31678300
   215  H          0.51530000       0.67010000       0.81678300
   216  H          0.48470000       0.32990000       0.31678300
   217  H         -0.00230000       0.05680000       0.88280000
   218  H          0.00230000       0.94320000       0.38280000
   219  H          0.49770000       0.94320000       0.88280000
   220  H          0.50230000       0.05680000       0.38280000
   221  H          0.90470000       0.45720000       0.95578200
   222  H          0.09530000       0.54280000       0.45578200
   223  H          0.40470000       0.54280000       0.95578200
   224  H          0.59530000       0.45720000       0.45578200
   225  H          0.84370000       0.33720000       0.87918400
   226  H          0.15630000       0.66280000       0.37918400
   227  H          0.34370000       0.66280000       0.87918400
   228  H          0.65630000       0.33720000       0.37918400
   229  H          0.86070000       0.56420000       0.80468300
   230  H          0.13930000       0.43580000       0.30468300
   231  H          0.36070000       0.43580000       0.80468300
   232  H          0.63930000       0.56420000       0.30468300
   233  H          0.12940000       0.05890000       0.12220000
   234  H          0.87060000       0.94110000       0.62220000
   235  H          0.62940000       0.94110000       0.12220000
   236  H          0.37060000       0.05890000       0.62220000
   237  H          0.11430000       0.75820000       0.19121700
   238  H          0.88570000       0.24180000       0.69121700
   239  H          0.61430000       0.24180000       0.19121700
   240  H          0.38570000       0.75820000       0.69121700
   241  H          0.03030000       0.42020000       0.18021800
   242  H          0.96970000       0.57980000       0.68021800
   243  H          0.53030000       0.57980000       0.18021800
   244  H          0.46970000       0.42020000       0.68021800
   245  H          0.96970000       0.33810000       0.10151700
   246  H          0.03030000       0.66190000       0.60151700
   247  H          0.46970000       0.66190000       0.10151700
   248  H          0.53030000       0.33810000       0.60151700
