data_PURSEB01
_symmetry_space_group_name_H-M    'P1'
_symmetry_Int_Tables_number       1
loop_
_symmetry_equiv_pos_site_id
_symmetry_equiv_pos_as_xyz
1 x,y,z
_cell_length_a                   10.54086
_cell_length_b                   19.911112
_cell_length_c                   11.83278
_cell_angle_alpha                90.0
_cell_angle_beta                 105.5943
_cell_angle_gamma                90.0
loop_
_atom_site_label
_atom_site_type_symbol
_atom_site_fract_x
_atom_site_fract_y
_atom_site_fract_z
     1  C          0.17902130       0.23178700       0.13944120
     2  C          0.32097870       0.73178700       0.36055880
     3  C          0.82097870       0.76821300       0.86055880
     4  C          0.67902130       0.26821300       0.63944120
     5  C          0.16546140       0.24176700       0.36726120
     6  C          0.33453860       0.74176700       0.13273880
     7  C          0.83453860       0.75823300       0.63273880
     8  C          0.66546140       0.25823300       0.86726120
     9  C          0.25540140       0.19818700       0.34077130
    10  C          0.24459860       0.69818700       0.15922870
    11  C          0.74459860       0.80181300       0.65922870
    12  C          0.75540140       0.30181300       0.84077130
    13  H          0.31050000       0.17240000       0.39930000
    14  H          0.18950000       0.67240000       0.10070000
    15  H          0.68950000       0.82760000       0.60070000
    16  H          0.81050000       0.32760000       0.89930000
    17  C          0.08318150       0.27992700       0.28164130
    18  C          0.41681850       0.77992700       0.21835870
    19  C          0.91681850       0.72007300       0.71835870
    20  C          0.58318150       0.22007300       0.78164130
    21  H          0.02330000       0.30910000       0.30090000
    22  H          0.47670000       0.80910000       0.19910000
    23  H          0.97670000       0.69090000       0.69910000
    24  H          0.52330000       0.19090000       0.80090000
    25  C          0.08933140       0.27494700       0.16732130
    26  C          0.41066860       0.77494700       0.33267870
    27  C          0.91066860       0.72505300       0.83267870
    28  C          0.58933140       0.22505300       0.66732130
    29  H          0.03330000       0.30050000       0.10900000
    30  H          0.46670000       0.80050000       0.39100000
    31  H          0.96670000       0.69950000       0.89100000
    32  H          0.53330000       0.19950000       0.60900000
    33  C          0.26207140       0.19362700       0.22668130
    34  C          0.23792860       0.69362700       0.27331870
    35  C          0.73792860       0.80637300       0.77331870
    36  C          0.76207140       0.30637300       0.72668130
    37  H          0.32270000       0.16470000       0.20780000
    38  H          0.17730000       0.66470000       0.29220000
    39  H          0.67730000       0.83530000       0.79220000
    40  H          0.82270000       0.33530000       0.70780000
    41  C          0.35858140       0.03551700       0.07508120
    42  C          0.14141860       0.53551700       0.42491880
    43  C          0.64141860       0.96448300       0.92491880
    44  C          0.85858140       0.46448300       0.57508120
    45  C          0.50998140       0.00210800       0.29475130
    46  C         -0.00998140       0.50210800       0.20524870
    47  C          0.49001860      -0.00210800       0.70524870
    48  C          0.00998140       0.49789200       0.79475130
    49  C          0.48147140       0.06502700       0.11915130
    50  C          0.01852860       0.56502700       0.38084870
    51  C          0.51852860       0.93497300       0.88084870
    52  C          0.98147140       0.43497300       0.61915130
    53  H          0.51300000       0.09580000       0.07420000
    54  H         -0.01300000       0.59580000       0.42580000
    55  H          0.48700000       0.90420000       0.92580000
    56  H          0.01300000       0.40420000       0.57420000
    57  C          0.31290150       0.98928300       0.14269130
    58  C          0.18709850       0.48928300       0.35730870
    59  C          0.68709850       0.01071700       0.85730870
    60  C          0.81290150       0.51071700       0.64269130
    61  H          0.23030000       0.96990000       0.11340000
    62  H          0.26970000       0.46990000       0.38660000
    63  H          0.76970000       0.03010000       0.88660000
    64  H          0.73030000       0.53010000       0.61340000
    65  C          0.55615150       0.04825800       0.22994130
    66  C          0.94384850       0.54825800       0.27005870
    67  C          0.44384850       0.95174200       0.77005870
    68  C          0.05615150       0.45174200       0.72994130
    69  H          0.63790000       0.06830000       0.26070000
    70  H          0.86210000       0.56830000       0.23930000
    71  H          0.36210000       0.93170000       0.73930000
    72  H          0.13790000       0.43170000       0.76070000
    73  C          0.38830160       0.97207200       0.25195140
    74  C          0.11169840       0.47207200       0.24804860
    75  C          0.61169840       0.02792800       0.74804860
    76  C          0.88830160       0.52792800       0.75195140
    77  H          0.35820000       0.94060000       0.29680000
    78  H          0.14180000       0.44060000       0.20320000
    79  H          0.64180000       0.05940000       0.70320000
    80  H          0.85820000       0.55940000       0.79680000
    81  C          0.85961860       0.14776700       0.25820120
    82  C          0.64038140       0.64776700       0.24179880
    83  C          0.14038140       0.85223300       0.74179880
    84  C          0.35961860       0.35223300       0.75820120
    85  H          0.79680000       0.17530000       0.20960000
    86  H          0.70320000       0.67530000       0.29040000
    87  H          0.20320000       0.82470000       0.79040000
    88  H          0.29680000       0.32470000       0.70960000
    89  C          0.96669870       0.10534600       0.44889120
    90  C          0.53330130       0.60534600       0.05110880
    91  C          0.03330130       0.89465400       0.55110880
    92  C          0.46669870       0.39465400       0.94889120
    93  C          0.93913860       0.10801600       0.21177120
    94  C          0.56086140       0.60801600       0.28822880
    95  C          0.06086140       0.89198400       0.78822880
    96  C          0.43913860       0.39198400       0.71177120
    97  C          0.03342150       0.06759700       0.28229130
    98  C          0.46657850       0.56759700       0.21770870
    99  C          0.96657850       0.93240300       0.71770870
   100  C          0.53342150       0.43240300       0.78229130
   101  H          0.08770000       0.04140000       0.24980000
   102  H          0.41230000       0.54140000       0.25020000
   103  H          0.91230000       0.95860000       0.75020000
   104  H          0.58770000       0.45860000       0.74980000
   105  C          0.87333870       0.14665700       0.37710120
   106  C          0.62666130       0.64665700       0.12289880
   107  C          0.12666130       0.85334300       0.62289880
   108  C          0.37333870       0.35334300       0.87710120
   109  H          0.81990000       0.17360000       0.40930000
   110  H          0.68010000       0.67360000       0.09070000
   111  H          0.18010000       0.82640000       0.59070000
   112  H          0.31990000       0.32640000       0.90930000
   113  C          0.04725150       0.06595700       0.40036130
   114  C          0.45274850       0.56595700       0.09963870
   115  C          0.95274850       0.93404300       0.59963870
   116  C          0.54725150       0.43404300       0.90036130
   117  H          0.11070000       0.03840000       0.44830000
   118  H          0.38930000       0.53840000       0.05170000
   119  H          0.88930000       0.96160000       0.55170000
   120  H          0.61070000       0.46160000       0.94830000
   121  O         -0.01232100       0.10009500       0.56661800
   122  O          0.51232100       0.60009500       0.93338200
   123  O          0.01232100       0.89990500       0.43338200
   124  O          0.48767900       0.39990500       0.06661800
   125  O          0.19372900       0.22317500       0.03018800
   126  O          0.30627100       0.72317500       0.46981200
   127  O          0.80627100       0.77682500       0.96981200
   128  O          0.69372900       0.27682500       0.53018800
   129  O          0.27665100       0.04831500       0.96828800
   130  O          0.22334900       0.54831500       0.53171200
   131  O          0.72334900       0.95168500       0.03171200
   132  O          0.77665100       0.45168500       0.46828800
   133  O          0.23629140       0.21472600       0.56387100
   134  O          0.26370860       0.71472600       0.93612900
   135  O          0.76370860       0.78527400       0.43612900
   136  O          0.73629140       0.28527400       0.06387100
   137  O          0.84093850       0.14444700       0.02345100
   138  O          0.65906150       0.64444700       0.47654900
   139  O          0.15906150       0.85555300       0.97654900
   140  O          0.34093850       0.35555300       0.52345100
   141  O         -0.00254130       0.07433700       0.04626100
   142  O          0.50254130       0.57433700       0.45373900
   143  O          0.00254130       0.92566300       0.95373900
   144  O          0.49745870       0.42566300       0.54626100
   145  O          0.07020130       0.28118700       0.50922100
   146  O          0.42979870       0.78118700      -0.00922100
   147  O          0.92979870       0.71881300       0.49077900
   148  O          0.57020130       0.21881300       0.00922100
   149  O          0.56352140       0.93387300       0.45843110
   150  O          0.93647860       0.43387300       0.04156890
   151  O          0.43647860       0.06612700       0.54156890
   152  O          0.06352140       0.56612700       0.95843110
   153  O          0.68501140       0.02056800       0.45725120
   154  O          0.81498860       0.52056800       0.04274880
   155  O          0.31498860       0.97943200       0.54274880
   156  O          0.18501140       0.47943200       0.95725120
   157  C          0.31520150       0.09735700       0.89524120
   158  C          0.18479850       0.59735700       0.60475880
   159  C          0.68479850       0.90264300       0.10475880
   160  C          0.81520150       0.40264300       0.39524120
   161  H          0.39250000       0.08210000       0.87290000
   162  H          0.10750000       0.58210000       0.62710000
   163  H          0.60750000       0.91790000       0.12710000
   164  H          0.89250000       0.41790000       0.37290000
   165  H          0.33630000       0.13950000       0.93710000
   166  H          0.16370000       0.63950000       0.56290000
   167  H          0.66370000       0.86050000       0.06290000
   168  H          0.83630000       0.36050000       0.43710000
   169  C          0.20119150       0.10670800       0.78756120
   170  C          0.29880850       0.60670800       0.71243880
   171  C          0.79880850       0.89329200       0.21243880
   172  C          0.70119150       0.39329200       0.28756120
   173  H          0.23210000       0.12900000       0.72710000
   174  H          0.26790000       0.62900000       0.77290000
   175  H          0.76790000       0.87100000       0.27290000
   176  H          0.73210000       0.37100000       0.22710000
   177  H          0.16700000       0.06310000       0.75770000
   178  H          0.33300000       0.56310000       0.74230000
   179  H          0.83300000       0.93690000       0.24230000
   180  H          0.66700000       0.43690000       0.25770000
   181  C          0.11849150       0.21829700       0.82291120
   182  C          0.38150850       0.71829700       0.67708880
   183  C          0.88150850       0.78170300       0.17708880
   184  C          0.61849150       0.28170300       0.32291120
   185  H          0.06200000       0.24040000       0.75470000
   186  H          0.43800000       0.74040000       0.74530000
   187  H          0.93800000       0.75960000       0.24530000
   188  H          0.56200000       0.25960000       0.25470000
   189  H          0.20920000       0.22750000       0.82400000
   190  H          0.29080000       0.72750000       0.67600000
   191  H          0.79080000       0.77250000       0.17600000
   192  H          0.70920000       0.27250000       0.32400000
   193  C          0.09167140       0.24669700       0.93197120
   194  C          0.40832860       0.74669700       0.56802880
   195  C          0.90832860       0.75330300       0.06802880
   196  C          0.59167140       0.25330300       0.43197120
   197  H          0.09180000       0.29540000       0.92930000
   198  H          0.40820000       0.79540000       0.57070000
   199  H          0.90820000       0.70460000       0.07070000
   200  H          0.59180000       0.20460000       0.42930000
   201  H          0.00630000       0.23180000       0.93850000
   202  H          0.49370000       0.73180000       0.56150000
   203  H         -0.00630000       0.76820000       0.06150000
   204  H          0.50630000       0.26820000       0.43850000
   205  C          0.91302860       0.14128800       0.62456120
   206  C          0.58697140       0.64128800       0.87543880
   207  C          0.08697140       0.85871200       0.37543880
   208  C          0.41302860       0.35871200       0.12456120
   209  H          0.82000000       0.13080000       0.59630000
   210  H          0.68000000       0.63080000       0.90370000
   211  H          0.18000000       0.86920000       0.40370000
   212  H          0.32000000       0.36920000       0.09630000
   213  H          0.92530000       0.18840000       0.60920000
   214  H          0.57470000       0.68840000       0.89080000
   215  H          0.07470000       0.81160000       0.39080000
   216  H          0.42530000       0.31160000       0.10920000
   217  C          0.96167860       0.12708700       0.75438120
   218  C          0.53832140       0.62708700       0.74561880
   219  C          0.03832140       0.87291300       0.24561880
   220  C          0.46167860       0.37291300       0.25438120
   221  H          0.90360000       0.14980000       0.79310000
   222  H          0.59640000       0.64980000       0.70690000
   223  H          0.09640000       0.85020000       0.20690000
   224  H          0.40360000       0.35020000       0.29310000
   225  H          0.95300000       0.07920000       0.76590000
   226  H          0.54700000       0.57920000       0.73410000
   227  H          0.04700000       0.92080000       0.23410000
   228  H          0.45300000       0.42080000       0.26590000
   229  N          0.09569110       0.14632600       0.81310900
   230  N          0.40430890       0.64632600       0.68689100
   231  N          0.90430890       0.85367400       0.18689100
   232  N          0.59569110       0.35367400       0.31310900
   233  N          0.92516860       0.10921700       0.08545110
   234  N          0.57483140       0.60921700       0.41454890
   235  N          0.07483140       0.89078300       0.91454890
   236  N          0.42516860       0.39078300       0.58545110
   237  N          0.15698160       0.24603700       0.48833120
   238  N          0.34301840       0.74603700       0.01166880
   239  N          0.84301840       0.75396300       0.51166880
   240  N          0.65698160       0.25396300      -0.01166880
   241  N          0.59169150       0.98386100       0.41094130
   242  N          0.90830850       0.48386100       0.08905870
   243  N          0.40830850       0.01613900       0.58905870
   244  N          0.09169150       0.51613900       0.91094130
