data_PURSEB
_symmetry_space_group_name_H-M    'P1'
_symmetry_Int_Tables_number       1
loop_
_symmetry_equiv_pos_site_id
_symmetry_equiv_pos_as_xyz
1 x,y,z
_cell_length_a                   9.2522
_cell_length_b                   11.9503
_cell_length_c                   12.4453
_cell_angle_alpha                73.24414
_cell_angle_beta                 78.58914
_cell_angle_gamma                70.47514
loop_
_atom_site_label
_atom_site_type_symbol
_atom_site_fract_x
_atom_site_fract_y
_atom_site_fract_z
     1  N          0.35381130       0.45928110       0.41383100
     2  N          0.64618870       0.54071890       0.58616900
     3  C          0.23505170       0.57083150       0.43274130
     4  C          0.76494830       0.42916850       0.56725870
     5  H          0.17130000       0.54980000       0.50280000
     6  H          0.82870000       0.45020000       0.49720000
     7  H          0.16940000       0.60190000       0.37230000
     8  H          0.83060000       0.39810000       0.62770000
     9  C          0.28536180       0.36324150       0.41794120
    10  C          0.71463820       0.63675850       0.58205880
    11  H          0.36310000       0.29820000       0.38850000
    12  H          0.63690000       0.70180000       0.61150000
    13  H          0.20250000       0.39710000       0.37000000
    14  H          0.79750000       0.60290000       0.63000000
    15  C          0.22253180       0.31064140       0.53664120
    16  C          0.77746820       0.68935860       0.46335880
    17  H          0.29830000       0.28890000       0.58880000
    18  H          0.70170000       0.71110000       0.41120000
    19  H          0.12960000       0.36900000       0.56160000
    20  H          0.87040000       0.63100000       0.43840000
    21  C          0.39611180       0.53636150       0.19846120
    22  C          0.60388820       0.46363850       0.80153880
    23  H          0.30570000       0.60560000       0.20540000
    24  H          0.69430000       0.39440000       0.79460000
    25  H          0.47210000       0.56530000       0.14150000
    26  H          0.52790000       0.43470000       0.85850000
    27  C          0.46215160       0.47845150       0.31107120
    28  C          0.53784840       0.52154850       0.68892880
    29  H          0.53580000       0.39970000       0.30650000
    30  H          0.46420000       0.60030000       0.69350000
    31  H          0.51930000       0.52920000       0.32050000
    32  H          0.48070000       0.47080000       0.67950000
    33  C          0.29439190       0.67137150       0.43860130
    34  C          0.70560810       0.32862850       0.56139870
    35  H          0.21470000       0.72900000       0.47570000
    36  H          0.78530000       0.27100000       0.52430000
    37  H          0.38260000       0.63760000       0.48140000
    38  H          0.61740000       0.36240000       0.51860000
    39  O          0.35493130       0.44573100       0.16624900
    40  O          0.64506870       0.55426900       0.83375100
    41  O          0.33876120       0.73235100       0.32433800
    42  O          0.66123880       0.26764900       0.67566200
    43  O          0.18948130       0.20413100       0.52987900
    44  O          0.81051870       0.79586900       0.47012100
    45  C          0.29226170       0.47817150       0.06775130
    46  C          0.70773830       0.52182850       0.93224870
    47  C          0.16687170       0.52299160       0.87068870
    48  C          0.83312830       0.47700840       0.12931130
    49  C          0.20585170       0.61396160       0.89417870
    50  C          0.79414830       0.38603840       0.10582130
    51  H          0.19040000       0.69010000       0.84350000
    52  H          0.80960000       0.30990000       0.15650000
    53  C          0.11617170       0.14290150       0.62142140
    54  C          0.88382830       0.85709850       0.37857860
    55  C          0.26791180       0.59251150      -0.00698130
    56  C          0.73208820       0.40748850       0.00698130
    57  H          0.29330000       0.65440000       0.00940000
    58  H          0.70670000       0.34560000      -0.00940000
    59  C          0.25252000       0.38703160       0.04251140
    60  C          0.74748000       0.61296840       0.95748860
    61  H          0.26820000       0.31050000       0.09260000
    62  H          0.73180000       0.68950000       0.90740000
    63  C          0.19008190       0.40874170       0.94415850
    64  C          0.80991810       0.59125830       0.05584150
    65  H          0.16400000       0.34740000       0.92740000
    66  H          0.83600000       0.65260000       0.07260000
    67  C          0.08122000       0.04542170       0.60456160
    68  C          0.91878000       0.95457830       0.39543840
    69  H          0.10920000       0.02650000       0.53440000
    70  H          0.89080000       0.97350000       0.46560000
    71  C          0.96448000       0.00732000       0.79126190
    72  C          0.03552000      -0.00732000       0.20873810
    73  C          0.07580190       0.17178170       0.72446140
    74  C          0.92419810       0.82821830       0.27553860
    75  H          0.10050000       0.23620000       0.73650000
    76  H          0.89950000       0.76380000       0.26350000
    77  C         -0.00242000       0.10342000       0.81037160
    78  C          0.00242000       0.89658000       0.18962840
    79  H          0.96780000       0.12230000       0.88050000
    80  H          0.03220000       0.87770000       0.11950000
    81  C          0.00602000       0.97688820       0.69002000
    82  C         -0.00602000       0.02311180       0.30998000
    83  H          0.98380000       0.91090000       0.67910000
    84  H          0.01620000       0.08910000       0.32090000
    85  C          0.39821170       0.82633150       0.30644140
    86  C          0.60178830       0.17366850       0.69355860
    87  C          0.52072000       0.01773170       0.25082000
    88  C          0.47928000       0.98226830       0.74918000
    89  C          0.45372000       0.98356170       0.35797190
    90  C          0.54628000       0.01643830       0.64202810
    91  H          0.44880000       0.02570000       0.41150000
    92  H          0.55120000       0.97430000       0.58850000
    93  C          0.46642000       0.86217160       0.19777150
    94  C          0.53358000       0.13782840       0.80222850
    95  H          0.47060000       0.82130000       0.14350000
    96  H          0.52940000       0.17870000       0.85650000
    97  C          0.39304190       0.88648160       0.38709150
    98  C          0.60695810       0.11351840       0.61290850
    99  H          0.34910000       0.86180000       0.46050000
   100  H          0.65090000       0.13820000       0.53950000
   101  C          0.52792000       0.95834180       0.17018180
   102  C          0.47208000       0.04165820       0.82981820
   103  H          0.57380000       0.98270000       0.09740000
   104  H          0.42620000       0.01730000       0.90260000
   105  N          0.10320170       0.54624180       0.76500860
   106  N          0.89679830       0.45375820       0.23499140
   107  N          0.59082000       0.11839170       0.22023000
   108  N          0.40918000       0.88160830       0.77977000
   109  N          0.88188000       0.93518000       0.88222000
   110  N          0.11812000       0.06482000       0.11778000
   111  O          0.06789180       0.46444150       0.74533880
   112  O          0.93210820       0.53555850       0.25466120
   113  O          0.08646180       0.64630160       0.69941870
   114  O          0.91353820       0.35369840       0.30058130
   115  O          0.60297180       0.15848150       0.29855190
   116  O          0.39702820       0.84151850       0.70144810
   117  O          0.85047000       0.85306810       0.86362000
   118  O          0.14953000       0.14693190       0.13638000
   119  O          0.63303000       0.15582170       0.12222000
   120  O          0.36697000       0.84417830       0.87778000
   121  O          0.84027000       0.96597000       0.97093180
   122  O          0.15973000       0.03403000       0.02906820
