data_PURSEB02
_symmetry_space_group_name_H-M    'P1'
_symmetry_Int_Tables_number       1
loop_
_symmetry_equiv_pos_site_id
_symmetry_equiv_pos_as_xyz
1 x,y,z
_cell_length_a                   23.106815
_cell_length_b                   23.107
_cell_length_c                   4.60744
_cell_angle_alpha                90.0
_cell_angle_beta                 90.0
_cell_angle_gamma                90.0
loop_
_atom_site_label
_atom_site_type_symbol
_atom_site_fract_x
_atom_site_fract_y
_atom_site_fract_z
     1  N          0.73266900       0.52371800       0.21565000
     2  N          0.26733100       0.47628200       0.71565000
     3  N          0.23266900       0.97628200       0.21565000
     4  N          0.76733100       0.02371800       0.71565000
     5  C          0.91700120       0.39085110       0.27577000
     6  C          0.08299880       0.60914890       0.77577000
     7  C          0.41700120       0.10914890       0.27577000
     8  C          0.58299880       0.89085110       0.77577000
     9  H          0.88540000       0.38320000       0.15650000
    10  H          0.11460000       0.61680000       0.65650000
    11  H          0.38540000       0.11680000       0.15650000
    12  H          0.61460000       0.88320000       0.65650000
    13  C          0.82679110       0.47586100       0.26697000
    14  C          0.17320890       0.52413900       0.76697000
    15  C          0.32679110       0.02413900       0.26697000
    16  C          0.67320890       0.97586100       0.76697000
    17  H          0.80600000       0.44250000       0.34080000
    18  H          0.19400000       0.55750000       0.84080000
    19  H          0.30600000       0.05750000       0.34080000
    20  H          0.69400000       0.94250000       0.84080000
    21  H          0.83430000       0.47020000       0.06170000
    22  H          0.16570000       0.52980000       0.56170000
    23  H          0.33430000       0.02980000       0.06170000
    24  H          0.66570000       0.97020000       0.56170000
    25  C          0.79251110       0.53083100       0.31667000
    26  C          0.20748890       0.46916900       0.81667000
    27  C          0.29251110       0.96916900       0.31667000
    28  C          0.70748890       0.03083100       0.81667000
    29  H          0.79250000       0.54020000       0.52180000
    30  H          0.20750000       0.45980000       0.02180000
    31  H          0.29250000       0.95980000       0.52180000
    32  H          0.70750000       0.04020000       0.02180000
    33  H          0.81060000       0.56260000       0.21290000
    34  H          0.18940000       0.43740000       0.71290000
    35  H          0.31060000       0.93740000       0.21290000
    36  H          0.68940000       0.06260000       0.71290000
    37  C          0.00780120       0.36273140       0.47988000
    38  C          0.99219880       0.63726860      -0.02012000
    39  C          0.50780120       0.13726860       0.47988000
    40  C          0.49219880       0.86273140      -0.02012000
    41  C          0.96249140       0.35114120       0.29969000
    42  C          0.03750860       0.64885880       0.79969000
    43  C          0.46249140       0.14885880       0.29969000
    44  C          0.53750860       0.85114120       0.79969000
    45  H          0.96180000       0.31700000       0.19300000
    46  H          0.03820000       0.68300000       0.69300000
    47  H          0.46180000       0.18300000       0.19300000
    48  H          0.53820000       0.81700000       0.69300000
    49  C          0.91989110       0.44117110       0.43126000
    50  C          0.08010890       0.55882890       0.93126000
    51  C          0.41989110       0.05882890       0.43126000
    52  C          0.58010890       0.94117110       0.93126000
    53  C          0.01089130       0.41260150       0.63698000
    54  C          0.98910870       0.58739850       0.13698000
    55  C          0.51089130       0.08739850       0.63698000
    56  C          0.48910870       0.91260150       0.13698000
    57  H          0.04230000       0.41970000       0.75810000
    58  H          0.95770000       0.58030000       0.25810000
    59  H          0.54230000       0.08030000       0.75810000
    60  H          0.45770000       0.91970000       0.25810000
    61  C          0.96669130       0.45217130       0.61278000
    62  C          0.03330870       0.54782870       0.11278000
    63  C          0.46669130       0.04782870       0.61278000
    64  C          0.53330870       0.95217130       0.11278000
    65  H          0.96810000       0.48640000       0.71820000
    66  H          0.03190000       0.51360000       0.21820000
    67  H          0.46810000       0.01360000       0.71820000
    68  H          0.53190000       0.98640000       0.21820000
    69  O          0.88006800       0.48421800       0.42365000
    70  O          0.11993200       0.51578200       0.92365000
    71  O          0.38006800       0.01578200       0.42365000
    72  O          0.61993200       0.98421800       0.92365000
    73  O          0.05404120       0.27776140       0.36161100
    74  O          0.94595880       0.72223860       0.86161100
    75  O          0.55404120       0.22223860       0.36161100
    76  O          0.44595880       0.77776140       0.86161100
    77  O          0.09291150       0.32991160       0.68751100
    78  O          0.90708850       0.67008840       0.18751100
    79  O          0.59291150       0.17008840       0.68751100
    80  O          0.40708850       0.82991160       0.18751100
    81  N          0.05520140       0.32021160       0.51201000
    82  N          0.94479860       0.67978840       0.01201000
    83  N          0.55520140       0.17978840       0.51201000
    84  N          0.44479860       0.82021160       0.01201000
    85  C          0.79372110       0.75800110       0.89696000
    86  C          0.20627890       0.24199890       0.39696000
    87  C          0.29372110       0.74199890       0.89696000
    88  C          0.70627890       0.25800110       0.39696000
    89  H          0.82850000       0.77080000      -0.02400000
    90  H          0.17150000       0.22920000       0.47600000
    91  H          0.32850000       0.72920000      -0.02400000
    92  H          0.67150000       0.27080000       0.47600000
    93  C          0.69072110       0.76665100       0.85416000
    94  C          0.30927890       0.23334900       0.35416000
    95  C          0.19072110       0.73334900       0.85416000
    96  C          0.80927890       0.26665100       0.35416000
    97  H          0.65650000       0.78520000       0.90620000
    98  H          0.34350000       0.21480000       0.40620000
    99  H          0.15650000       0.71480000       0.90620000
   100  H          0.84350000       0.28520000       0.40620000
   101  C          0.74079900       0.69429100       0.58556000
   102  C          0.25920100       0.30570900       0.08556000
   103  C          0.24079900       0.80570900       0.58556000
   104  C          0.75920100       0.19429100       0.08556000
   105  C          0.68945100       0.72189900       0.66105000
   106  C          0.31054900       0.27810100       0.16105000
   107  C          0.18945100       0.77810100       0.66105000
   108  C          0.81054900       0.22189900       0.16105000
   109  H          0.65450000       0.70990000       0.58050000
   110  H          0.34550000       0.29010000       0.08050000
   111  H          0.15450000       0.79010000       0.58050000
   112  H          0.84550000       0.20990000       0.08050000
   113  C          0.74229110       0.78432100      -0.02855000
   114  C          0.25770890       0.21567900       0.47145000
   115  C          0.24229110       0.71567900      -0.02855000
   116  C          0.75770890       0.28432100       0.47145000
   117  C          0.79297100       0.71305110       0.70596000
   118  C          0.20702900       0.28694890       0.20596000
   119  C          0.29297100       0.78694890       0.70596000
   120  C          0.70702900       0.21305110       0.20596000
   121  H          0.82740000       0.69480000       0.65550000
   122  H          0.17260000       0.30520000       0.15550000
   123  H          0.32740000       0.80520000       0.65550000
   124  H          0.67260000       0.19480000       0.15550000
   125  O          0.78965110       0.84841100       0.27056000
   126  O          0.21034890       0.15158900       0.77056000
   127  O          0.28965110       0.65158900       0.27056000
   128  O          0.71034890       0.34841100       0.77056000
   129  O          0.69674110       0.85470900       0.24216000
   130  O          0.30325890       0.14529100       0.74216000
   131  O          0.19674110       0.64529100       0.24216000
   132  O          0.80325890       0.35470900       0.74216000
   133  O          0.74451600       0.64835700       0.40464000
   134  O          0.25548400       0.35164300       0.90464000
   135  O          0.24451600       0.85164300       0.40464000
   136  O          0.75548400       0.14835700       0.90464000
   137  C          0.69554110       0.49215100       0.41876000
   138  C          0.30445890       0.50784900       0.91876000
   139  C          0.19554110       0.00784900       0.41876000
   140  C          0.80445890       0.99215100       0.91876000
   141  H          0.66690000       0.51860000       0.49670000
   142  H          0.33310000       0.48140000      -0.00330000
   143  H          0.16690000       0.98140000       0.49670000
   144  H          0.83310000       0.01860000      -0.00330000
   145  H          0.71900000       0.47850000       0.57920000
   146  H          0.28100000       0.52150000       0.07920000
   147  H          0.21900000       0.02150000       0.57920000
   148  H          0.78100000       0.97850000       0.07920000
   149  C          0.66494110       0.44160100       0.28596000
   150  C          0.33505890       0.55839900       0.78596000
   151  C          0.16494110       0.05839900       0.28596000
   152  C          0.83505890       0.94160100       0.78596000
   153  H          0.69250000       0.41740000       0.18310000
   154  H          0.30750000       0.58260000       0.68310000
   155  H          0.19250000       0.08260000       0.18310000
   156  H          0.80750000       0.91740000       0.68310000
   157  H          0.64690000       0.41850000       0.43670000
   158  H          0.35310000       0.58150000       0.93670000
   159  H          0.14690000       0.08150000       0.43670000
   160  H          0.85310000       0.91850000       0.93670000
   161  C          0.58301120       0.42396110      -0.02386000
   162  C          0.41698880       0.57603890       0.47614000
   163  C          0.08301120       0.07603890      -0.02386000
   164  C          0.91698880       0.92396110       0.47614000
   165  C          0.54118140       0.44743150       0.79242000
   166  C          0.45881860       0.55256850       0.29242000
   167  C          0.04118140       0.05256850       0.79242000
   168  C          0.95881860       0.94743150       0.29242000
   169  H          0.54110000       0.48690000       0.75350000
   170  H          0.45890000       0.51310000       0.25350000
   171  H          0.04110000       0.01310000       0.75350000
   172  H          0.95890000       0.98690000       0.25350000
   173  C          0.53990150       0.33130150       0.90979000
   174  C          0.46009850       0.66869850       0.40979000
   175  C          0.03990150       0.16869850       0.90979000
   176  C          0.96009850       0.83130150       0.40979000
   177  H          0.53910000       0.29180000       0.94840000
   178  H          0.46090000       0.70820000       0.44840000
   179  H          0.03910000       0.20820000       0.94840000
   180  H          0.96090000       0.79180000       0.44840000
   181  C          0.49966140       0.35479180       0.73271000
   182  C          0.50033860       0.64520820       0.23271000
   183  C         -0.00033860       0.14520820       0.73271000
   184  C          0.00033860       0.85479180       0.23271000
   185  C          0.58291130       0.36603120       0.03587000
   186  C          0.41708870       0.63396880       0.53587000
   187  C          0.08291130       0.13396880       0.03587000
   188  C          0.91708870       0.86603120       0.53587000
   189  H          0.61080000       0.35000000       0.15730000
   190  H          0.38920000       0.65000000       0.65730000
   191  H          0.11080000       0.15000000       0.15730000
   192  H          0.88920000       0.85000000       0.65730000
   193  C          0.50001140       0.41200190       0.66871000
   194  C          0.49998860       0.58799810       0.16871000
   195  C          0.00001140       0.08799810       0.66871000
   196  C         -0.00001140       0.91200190       0.16871000
   197  H          0.47260000       0.42730000       0.54230000
   198  H          0.52740000       0.57270000       0.04230000
   199  H          0.97260000       0.07270000       0.54230000
   200  H          0.02740000       0.92730000       0.04230000
   201  O          0.44825130       0.26998160       0.70558800
   202  O          0.55174870       0.73001840       0.20558800
   203  O          0.94825130       0.23001840       0.70558800
   204  O          0.05174870       0.76998160       0.20558800
   205  O          0.42703130       0.33872000       0.39599000
   206  O          0.57296870       0.66128000       0.89599000
   207  O          0.92703130       0.16128000       0.39599000
   208  O          0.07296870       0.83872000       0.89599000
   209  O          0.62151800       0.46241700       0.08775000
   210  O          0.37848200       0.53758300       0.58775000
   211  O          0.12151800       0.03758300       0.08775000
   212  O          0.87848200       0.96241700       0.58775000
   213  N          0.74268120       0.83217900       0.17335000
   214  N          0.25731880       0.16782100       0.67335000
   215  N          0.24268120       0.66782100       0.17335000
   216  N          0.75731880       0.33217900       0.67335000
   217  N          0.45522140       0.31832000       0.59678800
   218  N          0.54477860       0.68168000       0.09678800
   219  N          0.95522140       0.18168000       0.59678800
   220  N          0.04477860       0.81832000       0.09678800
   221  C          0.69178100       0.62487100       0.29086000
   222  C          0.30821900       0.37512900       0.79086000
   223  C          0.19178100       0.87512900       0.29086000
   224  C          0.80821900       0.12487100       0.79086000
   225  H          0.67090000       0.65450000       0.18450000
   226  H          0.32910000       0.34550000       0.68450000
   227  H          0.17090000       0.84550000       0.18450000
   228  H          0.82910000       0.15450000       0.68450000
   229  H          0.66740000       0.61140000       0.44830000
   230  H          0.33260000       0.38860000       0.94830000
   231  H          0.16740000       0.88860000       0.44830000
   232  H          0.83260000       0.11140000       0.94830000
   233  C          0.70644110       0.57515100       0.09156000
   234  C          0.29355890       0.42484900       0.59156000
   235  C          0.20644110       0.92484900       0.09156000
   236  C          0.79355890       0.07515100       0.59156000
   237  H          0.67110000       0.56340000      -0.00540000
   238  H          0.32890000       0.43660000       0.49460000
   239  H          0.17110000       0.93660000      -0.00540000
   240  H          0.82890000       0.06340000       0.49460000
   241  H          0.73240000       0.58970000       0.94310000
   242  H          0.26760000       0.41030000       0.44310000
   243  H          0.23240000       0.91030000       0.94310000
   244  H          0.76760000       0.08970000       0.44310000
