data_PYMDAN
_symmetry_space_group_name_H-M    'P1'
_symmetry_Int_Tables_number       1
loop_
_symmetry_equiv_pos_site_id
_symmetry_equiv_pos_as_xyz
1 x,y,z
_cell_length_a                   10.7921
_cell_length_b                   10.7921
_cell_length_c                   7.41288
_cell_angle_alpha                90.0
_cell_angle_beta                 90.0
_cell_angle_gamma                90.0
loop_
_atom_site_label
_atom_site_type_symbol
_atom_site_fract_x
_atom_site_fract_y
_atom_site_fract_z
     1  C          0.94867000       0.06367000       0.63845000
     2  C          0.93633000       0.44867000       0.13845000
     3  C          0.55133000       0.43633000       0.63845000
     4  C          0.56367000       0.05133000       0.13845000
     5  C          0.05133000       0.93633000       0.36155000
     6  C          0.06367000       0.55133000       0.86155000
     7  C          0.44867000       0.56367000       0.36155000
     8  C          0.43633000       0.94867000       0.86155000
     9  C          0.91270000       0.15629000       0.77755000
    10  C          0.84371000       0.41270000       0.27755000
    11  C          0.58730000       0.34371000       0.77755000
    12  C          0.65629000       0.08730000       0.27755000
    13  C          0.08730000       0.84371000       0.22245000
    14  C          0.15629000       0.58730000       0.72245000
    15  C          0.41270000       0.65629000       0.22245000
    16  C          0.34371000       0.91270000       0.72245000
    17  C          0.05524000       0.24692000       0.59335000
    18  C          0.75308000       0.55524000       0.09335000
    19  C          0.44476000       0.25308000       0.59335000
    20  C          0.74692000       0.94476000       0.09335000
    21  C          0.94476000       0.75308000       0.40665000
    22  C          0.24692000       0.44476000       0.90665000
    23  C          0.55524000       0.74692000       0.40665000
    24  C          0.25308000       0.05524000       0.90665000
    25  C          0.03518000       0.11914000       0.52557000
    26  C          0.88086000       0.53518000       0.02557000
    27  C          0.46482000       0.38086000       0.52557000
    28  C          0.61914000       0.96482000       0.02557000
    29  C          0.96482000       0.88086000       0.47443000
    30  C          0.11914000       0.46482000       0.97443000
    31  C          0.53518000       0.61914000       0.47443000
    32  C          0.38086000       0.03518000       0.97443000
    33  C          0.90991000       0.94200000       0.61691000
    34  C          0.05800000       0.40991000       0.11691000
    35  C          0.59009000       0.55800000       0.61691000
    36  C          0.44200000       0.09009000       0.11691000
    37  C          0.09009000       0.05800000       0.38309000
    38  C          0.94200000       0.59009000       0.88309000
    39  C          0.40991000       0.44200000       0.38309000
    40  C          0.55800000       0.90991000       0.88309000
    41  O          0.97840000       0.26416000       0.74091000
    42  O          0.73584000       0.47840000       0.24091000
    43  O          0.52160000       0.23584000       0.74091000
    44  O          0.76416000       0.02160000       0.24091000
    45  O          0.02160000       0.73584000       0.25909000
    46  O          0.26416000       0.52160000       0.75909000
    47  O          0.47840000       0.76416000       0.25909000
    48  O          0.23584000       0.97840000       0.75909000
    49  O          0.84396000       0.14909000       0.90119000
    50  O          0.85091000       0.34396000       0.40119000
    51  O          0.65604000       0.35091000       0.90119000
    52  O          0.64909000       0.15604000       0.40119000
    53  O          0.15604000       0.85091000       0.09881000
    54  O          0.14909000       0.65604000       0.59881000
    55  O          0.34396000       0.64909000       0.09881000
    56  O          0.35091000       0.84396000       0.59881000
    57  O          0.12360000       0.32634000       0.54248000
    58  O          0.67366000       0.62360000       0.04248000
    59  O          0.37640000       0.17366000       0.54248000
    60  O          0.82634000       0.87640000       0.04248000
    61  O          0.87640000       0.67366000       0.45752000
    62  O          0.32634000       0.37640000       0.95752000
    63  O          0.62360000       0.82634000       0.45752000
    64  O          0.17366000       0.12360000       0.95752000
    65  H          0.85053000       0.90320000       0.69447000
    66  H          0.09680000       0.35053000       0.19447000
    67  H          0.64947000       0.59680000       0.69447000
    68  H          0.40320000       0.14947000       0.19447000
    69  H          0.14947000       0.09680000       0.30553000
    70  H          0.90320000       0.64947000       0.80553000
    71  H          0.35053000       0.40320000       0.30553000
    72  H          0.59680000       0.85053000       0.80553000
