data_PYMDAN16
_symmetry_space_group_name_H-M    'P1'
_symmetry_Int_Tables_number       1
loop_
_symmetry_equiv_pos_site_id
_symmetry_equiv_pos_as_xyz
1 x,y,z
_cell_length_a                   8.968815
_cell_length_b                   9.731416
_cell_length_c                   10.5986
_cell_angle_alpha                90.0
_cell_angle_beta                 96.373
_cell_angle_gamma                90.0
loop_
_atom_site_label
_atom_site_type_symbol
_atom_site_fract_x
_atom_site_fract_y
_atom_site_fract_z
     1  C          0.53657000       0.52326000       0.12691100
     2  C          0.46343000       0.02326000       0.37308900
     3  C          0.46343000       0.47674000       0.87308900
     4  C          0.53657000       0.97674000       0.62691100
     5  C          0.40687000       0.57936000       0.06171100
     6  C          0.59313000       0.07936000       0.43828900
     7  C          0.59313000       0.42064000       0.93828900
     8  C          0.40687000       0.92064000       0.56171100
     9  C          0.36807000       0.55986000       0.93368800
    10  C          0.63193000       0.05986000       0.56631200
    11  C          0.63193000       0.44014000       0.06631200
    12  C          0.36807000       0.94014000       0.43368800
    13  H          0.28303600       0.59977500       0.89048100
    14  H          0.71696400       0.09977500       0.60951900
    15  H          0.71696400       0.40022500       0.10951900
    16  H          0.28303600       0.90022500       0.39048100
    17  O          0.41867000       0.64956000       0.27141000
    18  O          0.58133000       0.14956000       0.22859000
    19  O          0.58133000       0.35044000       0.72859000
    20  O          0.41867000       0.85044000       0.77141000
    21  O          0.22118000       0.72037000       0.13951300
    22  O          0.77882000       0.22037000       0.36048700
    23  O          0.77882000       0.27963000       0.86048700
    24  O          0.22118000       0.77963000       0.63951300
    25  O          0.63319000       0.54819000       0.34371200
    26  O          0.36681000       0.04819000       0.15628800
    27  O          0.36681000       0.45181000       0.65628800
    28  O          0.63319000       0.95181000       0.84371200
    29  C          0.54491100       0.56809000       0.25681400
    30  C          0.45508900       0.06809000       0.24318600
    31  C          0.45508900       0.43191000       0.74318600
    32  C          0.54491100       0.93191000       0.75681400
    33  C          0.33121000       0.65847000       0.15491600
    34  C          0.66879000       0.15847000       0.34508400
    35  C          0.66879000       0.34153000       0.84508400
    36  C          0.33121000       0.84153000       0.65491600
    37  C          0.91718000       0.43808000       0.59391400
    38  C          0.08282000       0.93808000       0.90608600
    39  C          0.08282000       0.56192000       0.40608600
    40  C          0.91718000       0.06192000       0.09391400
    41  H          0.86644900       0.39712400       0.65609200
    42  H          0.13355100       0.89712400       0.84390800
    43  H          0.13355100       0.60287600       0.34390800
    44  H          0.86644900       0.10287600       0.15609200
    45  C          0.89358000       0.57058000       0.55251400
    46  C          0.10642000       0.07058000       0.94748600
    47  C          0.10642000       0.42942000       0.44748600
    48  C          0.89358000       0.92942000       0.05251400
    49  O          0.69541100       0.66508000       0.66181900
    50  O          0.30458900       0.16508000       0.83818100
    51  O          0.30458900       0.33492000       0.33818100
    52  O          0.69541100       0.83492000       0.16181900
    53  C          0.97169000       0.62997000       0.46951400
    54  C          0.02831000       0.12997000       0.03048600
    55  C          0.02831000       0.37003000       0.53048600
    56  C          0.97169000       0.87003000       0.96951400
    57  O          0.81069000       0.79257000       0.52621300
    58  O          0.18931000       0.29257000       0.97378700
    59  O          0.18931000       0.20743000       0.47378700
    60  O          0.81069000       0.70743000       0.02621300
    61  C          0.91811400       0.77501000       0.45531800
    62  C          0.08188600       0.27501000       0.04468200
    63  C          0.08188600       0.22499000       0.54468200
    64  C          0.91811400       0.72499000       0.95531800
    65  O          0.96181000       0.86369000       0.38651700
    66  O          0.03819000       0.36369000       0.11348300
    67  O          0.03819000       0.13631000       0.61348300
    68  O          0.96181000       0.63631000       0.88651700
    69  C          0.79011300       0.67171000       0.58761800
    70  C          0.20988700       0.17171000       0.91238200
    71  C          0.20988700       0.32829000       0.41238200
    72  C          0.79011300       0.82829000       0.08761800
