data_PYMDAN13
_symmetry_space_group_name_H-M    'P1'
_symmetry_Int_Tables_number       1
loop_
_symmetry_equiv_pos_site_id
_symmetry_equiv_pos_as_xyz
1 x,y,z
_cell_length_a                   10.843312
_cell_length_b                   10.843312
_cell_length_c                   7.45955
_cell_angle_alpha                90.0
_cell_angle_beta                 90.0
_cell_angle_gamma                90.0
loop_
_atom_site_label
_atom_site_type_symbol
_atom_site_fract_x
_atom_site_fract_y
_atom_site_fract_z
     1  O          0.52123000       0.23783000       0.26142000
     2  O          0.97877000       0.26217000       0.26142000
     3  O          0.76217000       0.02123000       0.76142000
     4  O          0.73783000       0.47877000       0.76142000
     5  O          0.47877000       0.76217000       0.73858000
     6  O          0.02123000       0.73783000       0.73858000
     7  O          0.23783000       0.97877000       0.23858000
     8  O          0.26217000       0.52123000       0.23858000
     9  O          0.37914000       0.17493000       0.45814000
    10  O          0.12086000       0.32507000       0.45814000
    11  O          0.82507000       0.87914000       0.95814000
    12  O          0.67493000       0.62086000       0.95814000
    13  O          0.62086000       0.82507000       0.54186000
    14  O          0.87914000       0.67493000       0.54186000
    15  O          0.17493000       0.12086000       0.04186000
    16  O          0.32507000       0.37914000       0.04186000
    17  O          0.65474000       0.35174000       0.10424000
    18  O          0.84526000       0.14826000       0.10424000
    19  O          0.64826000       0.15474000       0.60424000
    20  O          0.85174000       0.34526000       0.60424000
    21  O          0.34526000       0.64826000       0.89576000
    22  O          0.15474000       0.85174000       0.89576000
    23  O          0.35174000       0.84526000       0.39576000
    24  O          0.14826000       0.65474000       0.39576000
    25  C          0.55144000       0.43704000       0.36343000
    26  C          0.94856000       0.06296000       0.36343000
    27  C          0.56296000       0.05144000       0.86343000
    28  C          0.93704000       0.44856000       0.86343000
    29  C          0.44856000       0.56296000       0.63657000
    30  C          0.05144000       0.93704000       0.63657000
    31  C          0.43704000       0.94856000       0.13657000
    32  C          0.06296000       0.55144000       0.13657000
    33  C          0.46494000       0.38153000       0.47433000
    34  C          0.03506000       0.11847000       0.47433000
    35  C          0.61847000       0.96494000       0.97433000
    36  C          0.88153000       0.53506000       0.97433000
    37  C          0.53506000       0.61847000       0.52567000
    38  C          0.96494000       0.88153000       0.52567000
    39  C          0.38153000       0.03506000       0.02567000
    40  C          0.11847000       0.46494000       0.02567000
    41  C          0.59034000       0.55604000       0.38524000
    42  C          0.90966000       0.94396000       0.38524000
    43  C          0.44396000       0.09034000       0.88524000
    44  C          0.05604000       0.40966000       0.88524000
    45  C          0.40966000       0.44396000       0.61476000
    46  C          0.09034000       0.05604000       0.61476000
    47  C          0.55604000       0.90966000       0.11476000
    48  C          0.94396000       0.59034000       0.11476000
    49  H          0.64040000       0.59350000       0.31350000
    50  H          0.85960000       0.90650000       0.31350000
    51  H          0.40650000       0.14040000       0.81350000
    52  H          0.09350000       0.35960000       0.81350000
    53  H          0.35960000       0.40650000       0.68650000
    54  H          0.14040000       0.09350000       0.68650000
    55  H          0.59350000       0.85960000       0.18650000
    56  H          0.90650000       0.64040000       0.18650000
    57  C          0.44325000       0.25715000       0.40794000
    58  C          0.05675000       0.24285000       0.40794000
    59  C          0.74285000       0.94325000       0.90794000
    60  C          0.75715000       0.55675000       0.90794000
    61  C          0.55675000       0.74285000       0.59206000
    62  C          0.94325000       0.75715000       0.59206000
    63  C          0.25715000       0.05675000       0.09206000
    64  C          0.24285000       0.44325000       0.09206000
    65  C          0.58745000       0.34514000       0.22724000
    66  C          0.91255000       0.15486000       0.22724000
    67  C          0.65486000       0.08745000       0.72724000
    68  C          0.84514000       0.41255000       0.72724000
    69  C          0.41255000       0.65486000       0.77276000
    70  C          0.08745000       0.84514000       0.77276000
    71  C          0.34514000       0.91255000       0.27276000
    72  C          0.15486000       0.58745000       0.27276000
    73  H          0.36040000       0.40750000       0.68750000
    74  H          0.13960000       0.09250000       0.68750000
    75  H          0.59250000       0.86040000       0.18750000
    76  H          0.90750000       0.63960000       0.18750000
    77  H          0.63960000       0.59250000       0.31250000
    78  H          0.86040000       0.90750000       0.31250000
    79  H          0.40750000       0.13960000       0.81250000
    80  H          0.09250000       0.36040000       0.81250000
