data_PYRDNA01
_symmetry_space_group_name_H-M    'P1'
_symmetry_Int_Tables_number       1
loop_
_symmetry_equiv_pos_site_id
_symmetry_equiv_pos_as_xyz
1 x,y,z
_cell_length_a                   17.5243
_cell_length_b                   8.9692
_cell_length_c                   11.3522
_cell_angle_alpha                90.0
_cell_angle_beta                 90.0
_cell_angle_gamma                90.0
loop_
_atom_site_label
_atom_site_type_symbol
_atom_site_fract_x
_atom_site_fract_y
_atom_site_fract_z
     1  H          0.05200000       0.28800000       0.11600000
     2  H          0.44800000       0.78800000       0.61600000
     3  H          0.55200000       0.21200000       0.11600000
     4  H          0.94800000       0.71200000       0.61600000
     5  H          0.04300000       0.02500000       0.10300000
     6  H          0.45700000       0.52500000       0.60300000
     7  H          0.54300000       0.47500000       0.10300000
     8  H          0.95700000       0.97500000       0.60300000
     9  H          0.10600000       0.87200000       0.23200000
    10  H          0.39400000       0.37200000       0.73200000
    11  H          0.60600000       0.62800000       0.23200000
    12  H          0.89400000       0.12800000       0.73200000
    13  H          0.18700000      -0.00700000       0.38200000
    14  H          0.31300000       0.49300000       0.88200000
    15  H          0.68700000       0.50700000       0.38200000
    16  H          0.81300000       0.00700000       0.88200000
    17  H          0.19400000       0.24600000       0.38300000
    18  H          0.30600000       0.74600000       0.88300000
    19  H          0.69400000       0.25400000       0.38300000
    20  H          0.80600000       0.75400000       0.88300000
    21  N          0.12680000       0.28640000       0.24660000
    22  N          0.37320000       0.78640000       0.74660000
    23  N          0.62680000       0.21360000       0.24660000
    24  N          0.87320000       0.71360000       0.74660000
    25  C          0.08230000       0.21740000       0.16800000
    26  C          0.41770000       0.71740000       0.66800000
    27  C          0.58230000       0.28260000       0.16800000
    28  C          0.91770000       0.78260000       0.66800000
    29  C          0.07370000       0.06430000       0.16260000
    30  C          0.42630000       0.56430000       0.66260000
    31  C          0.57370000       0.43570000       0.16260000
    32  C          0.92630000       0.93570000       0.66260000
    33  C          0.11300000       0.97780000       0.24080000
    34  C          0.38700000       0.47780000       0.74080000
    35  C          0.61300000       0.52220000       0.24080000
    36  C          0.88700000       0.02220000       0.74080000
    37  C          0.15940000       0.04570000       0.32230000
    38  C          0.34060000       0.54570000       0.82230000
    39  C          0.65940000       0.45430000       0.32230000
    40  C          0.84060000       0.95430000       0.82230000
    41  C          0.16430000       0.19930000       0.32290000
    42  C          0.33570000       0.69930000       0.82290000
    43  C          0.66430000       0.30070000       0.32290000
    44  C          0.83570000       0.80070000       0.82290000
    45  H          0.09800000       0.83700000       0.62800000
    46  H          0.40200000       0.33700000       0.12800000
    47  H          0.59800000       0.66300000       0.62800000
    48  H          0.90200000       0.16300000       0.12800000
    49  H          0.22600000       0.82100000       0.63300000
    50  H          0.27400000       0.32100000       0.13300000
    51  H          0.72600000       0.67900000       0.63300000
    52  H          0.77400000       0.17900000       0.13300000
    53  H          0.29400000       0.66800000       0.49000000
    54  H          0.20600000       0.16800000      -0.01000000
    55  H          0.79400000       0.83200000       0.49000000
    56  H          0.70600000       0.33200000      -0.01000000
    57  H          0.21900000       0.53900000       0.35400000
    58  H          0.28100000       0.03900000       0.85400000
    59  H          0.71900000       0.96100000       0.35400000
    60  H          0.78100000       0.46100000       0.85400000
    61  H          0.08300000       0.55700000       0.36300000
    62  H          0.41700000       0.05700000       0.86300000
    63  H          0.58300000       0.94300000       0.36300000
    64  H          0.91700000       0.44300000       0.86300000
    65  N          0.07980000       0.69530000       0.49880000
    66  N          0.42020000       0.19530000      -0.00120000
    67  N          0.57980000       0.80470000       0.49880000
    68  N          0.92020000       0.30470000      -0.00120000
    69  C          0.12310000       0.77060000       0.57550000
    70  C          0.37690000       0.27060000       0.07550000
    71  C          0.62310000       0.72940000       0.57550000
    72  C          0.87690000       0.22940000       0.07550000
    73  C          0.20200000       0.76490000       0.57590000
    74  C          0.29800000       0.26490000       0.07590000
    75  C          0.70200000       0.73510000       0.57590000
    76  C          0.79800000       0.23510000       0.07590000
    77  C          0.23850000       0.67700000       0.49300000
    78  C          0.26150000       0.17700000      -0.00700000
    79  C          0.73850000       0.82300000       0.49300000
    80  C          0.76150000       0.32300000      -0.00700000
    81  C          0.19460000       0.59850000       0.41360000
    82  C          0.30540000       0.09850000       0.91360000
    83  C          0.69460000       0.90150000       0.41360000
    84  C          0.80540000       0.40150000       0.91360000
    85  C          0.11620000       0.61060000       0.42050000
    86  C          0.38380000       0.11060000       0.92050000
    87  C          0.61620000       0.88940000       0.42050000
    88  C          0.88380000       0.38940000       0.92050000
    89  H          0.04100000       0.14300000       0.86500000
    90  H          0.45900000       0.64300000       0.36500000
    91  H          0.54100000       0.35700000       0.86500000
    92  H          0.95900000       0.85700000       0.36500000
    93  H          0.06400000       0.40300000       0.88600000
    94  H          0.43600000       0.90300000       0.38600000
    95  H          0.56400000       0.09700000       0.88600000
    96  H          0.93600000       0.59700000       0.38600000
    97  H          0.15500000       0.51000000       0.76400000
    98  H          0.34500000       0.01000000       0.26400000
    99  H          0.65500000      -0.01000000       0.76400000
   100  H          0.84500000       0.49000000       0.26400000
   101  H          0.22100000       0.36200000       0.62500000
   102  H          0.27900000       0.86200000       0.12500000
   103  H          0.72100000       0.13800000       0.62500000
   104  H          0.77900000       0.63800000       0.12500000
   105  H          0.19100000       0.10500000       0.61100000
   106  H          0.30900000       0.60500000       0.11100000
   107  H          0.69100000       0.39500000       0.61100000
   108  H          0.80900000       0.89500000       0.11100000
   109  N          0.11360000       0.10520000       0.73840000
   110  N          0.38640000       0.60520000       0.23840000
   111  N          0.61360000       0.39480000       0.73840000
   112  N          0.88640000       0.89480000       0.23840000
   113  C          0.07670000       0.19220000       0.81530000
   114  C          0.42330000       0.69220000       0.31530000
   115  C          0.57670000       0.30780000       0.81530000
   116  C          0.92330000       0.80780000       0.31530000
   117  C          0.09000000       0.34360000       0.82660000
   118  C          0.41000000       0.84360000       0.32660000
   119  C          0.59000000       0.15640000       0.82660000
   120  C          0.91000000       0.65640000       0.32660000
   121  C          0.14440000       0.40840000       0.75560000
   122  C          0.35560000       0.90840000       0.25560000
   123  C          0.64440000       0.09160000       0.75560000
   124  C          0.85560000       0.59160000       0.25560000
   125  C          0.18320000       0.32080000       0.67550000
   126  C          0.31680000       0.82080000       0.17550000
   127  C          0.68320000       0.17920000       0.67550000
   128  C          0.81680000       0.67920000       0.17550000
   129  C          0.16590000       0.17200000       0.67060000
   130  C          0.33410000       0.67200000       0.17060000
   131  C          0.66590000       0.32800000       0.67060000
   132  C          0.83410000       0.82800000       0.17060000
   133  H          0.15800000       0.55300000       0.12300000
   134  H          0.34200000       0.05300000       0.62300000
   135  H          0.65800000       0.94700000       0.12300000
   136  H          0.84200000       0.44700000       0.62300000
   137  H          0.02900000       0.55500000       0.13900000
   138  H          0.47100000       0.05500000       0.63900000
   139  H          0.52900000       0.94500000       0.13900000
   140  H          0.97100000       0.44500000       0.63900000
   141  H          0.95400000       0.70900000       0.00700000
   142  H          0.54600000       0.20900000       0.50700000
   143  H          0.45400000       0.79100000       0.00700000
   144  H          0.04600000       0.29100000       0.50700000
   145  H          0.01900000       0.84300000       0.86700000
   146  H          0.48100000       0.34300000       0.36700000
   147  H          0.51900000       0.65700000       0.86700000
   148  H          0.98100000       0.15700000       0.36700000
   149  H          0.15800000       0.83900000       0.86000000
   150  H          0.34200000       0.33900000       0.36000000
   151  H          0.65800000       0.66100000       0.86000000
   152  H          0.84200000       0.16100000       0.36000000
   153  N          0.16870000       0.69670000      -0.00540000
   154  N          0.33130000       0.19670000       0.49460000
   155  N          0.66870000       0.80330000      -0.00540000
   156  N          0.83130000       0.30330000       0.49460000
   157  C          0.12970000       0.61450000       0.07230000
   158  C          0.37030000       0.11450000       0.57230000
   159  C          0.62970000       0.88550000       0.07230000
   160  C          0.87030000       0.38550000       0.57230000
   161  C          0.05110000       0.61380000       0.08040000
   162  C          0.44890000       0.11380000       0.58040000
   163  C          0.55110000       0.88620000       0.08040000
   164  C          0.94890000       0.38620000       0.58040000
   165  C          0.00980000       0.70140000       0.00370000
   166  C          0.49020000       0.20140000       0.50370000
   167  C          0.50980000       0.79860000       0.00370000
   168  C          0.99020000       0.29860000       0.50370000
   169  C          0.04890000       0.78700000       0.92240000
   170  C          0.45110000       0.28700000       0.42240000
   171  C          0.54890000       0.71300000       0.92240000
   172  C          0.95110000       0.21300000       0.42240000
   173  C          0.12790000       0.78150000       0.92190000
   174  C          0.37210000       0.28150000       0.42190000
   175  C          0.62790000       0.71850000       0.92190000
   176  C          0.87210000       0.21850000       0.42190000
