data_PYRDNA08
_symmetry_space_group_name_H-M    'P1'
_symmetry_Int_Tables_number       1
loop_
_symmetry_equiv_pos_site_id
_symmetry_equiv_pos_as_xyz
1 x,y,z
_cell_length_a                   5.40534
_cell_length_b                   5.40534
_cell_length_c                   13.485314
_cell_angle_alpha                90.0
_cell_angle_beta                 90.0
_cell_angle_gamma                90.0
loop_
_atom_site_label
_atom_site_type_symbol
_atom_site_fract_x
_atom_site_fract_y
_atom_site_fract_z
     1  N          0.55865000       0.55865000       0.50000000
     2  N          0.94135000       0.05865000       0.75000000
     3  N          0.44135000       0.44135000      -0.00000000
     4  N          0.05865000       0.94135000       0.25000000
     5  C          0.36096000       0.58346000       0.44093000
     6  C          0.91654000       0.86096000       0.69093000
     7  C          0.63904000       0.41654000       0.94093000
     8  C          0.08346000       0.13904000       0.19093000
     9  C          0.86096000       0.91654000       0.30907000
    10  C          0.13904000       0.08346000       0.80907000
    11  C          0.58346000       0.36096000       0.55907000
    12  C          0.41654000       0.63904000       0.05907000
    13  H          0.34440000       0.72250000       0.40090000
    14  H          0.77750000       0.84440000       0.65090000
    15  H          0.65560000       0.27750000       0.90090000
    16  H          0.22250000       0.15560000       0.15090000
    17  H          0.84440000       0.77750000       0.34910000
    18  H          0.15560000       0.22250000       0.84910000
    19  H          0.72250000       0.34440000       0.59910000
    20  H          0.27750000       0.65560000       0.09910000
    21  C          0.18316000       0.40257000       0.43983000
    22  C          0.09743000       0.68316000       0.68983000
    23  C          0.81684000       0.59743000       0.93983000
    24  C          0.90257000       0.31684000       0.18983000
    25  C          0.68316000       0.09743000       0.31017000
    26  C          0.31684000       0.90257000       0.81017000
    27  C          0.40257000       0.18316000       0.56017000
    28  C          0.59743000       0.81684000       0.06017000
    29  H          0.04810000       0.41690000       0.39740000
    30  H          0.08310000       0.54810000       0.64740000
    31  H          0.95190000       0.58310000       0.89740000
    32  H          0.91690000       0.45190000       0.14740000
    33  H          0.54810000       0.08310000       0.35260000
    34  H          0.45190000       0.91690000       0.85260000
    35  H          0.41690000       0.04810000       0.60260000
    36  H          0.58310000       0.95190000       0.10260000
    37  C          0.20295000       0.20295000       0.50000000
    38  C          0.29705000       0.70295000       0.75000000
    39  C          0.79705000       0.79705000      -0.00000000
    40  C          0.70295000       0.29705000       0.25000000
    41  H          0.08120000       0.08120000       0.50000000
    42  H          0.41880000       0.58120000       0.75000000
    43  H          0.91880000       0.91880000      -0.00000000
    44  H          0.58120000       0.41880000       0.25000000
