data_PYRDNA03
_symmetry_space_group_name_H-M    'P1'
_symmetry_Int_Tables_number       1
loop_
_symmetry_equiv_pos_site_id
_symmetry_equiv_pos_as_xyz
1 x,y,z
_cell_length_a                   5.41368
_cell_length_b                   6.800117
_cell_length_c                   11.2453
_cell_angle_alpha                90.0
_cell_angle_beta                 90.0
_cell_angle_gamma                90.0
loop_
_atom_site_label
_atom_site_type_symbol
_atom_site_fract_x
_atom_site_fract_y
_atom_site_fract_z
     1  N          0.13341400       0.07521400       0.37998000
     2  N          0.63341400       0.42478600       0.62002000
     3  N          0.86658600       0.57521400       0.12002000
     4  N          0.36658600       0.92478600       0.87998000
     5  C          0.32131500       0.08191700       0.45810000
     6  C          0.82131500       0.41808300       0.54190000
     7  C          0.67868500       0.58191700       0.04190000
     8  C          0.17868500       0.91808300       0.95810000
     9  C          0.51671700       0.95418600       0.45721100
    10  C          0.01671700       0.54581400       0.54278900
    11  C          0.48328300       0.45418600       0.04278900
    12  C         -0.01671700       0.04581400       0.95721100
    13  C          0.51901900       0.80488200       0.37510000
    14  C          0.01901900       0.69511800       0.62490000
    15  C          0.48098100       0.30488200       0.12490000
    16  C         -0.01901900       0.19511800       0.87510000
    17  C          0.33051800       0.79348500       0.29341100
    18  C          0.83051800       0.70651500       0.70658900
    19  C          0.66948200       0.29348500       0.20658900
    20  C          0.16948200       0.20651500       0.79341100
    21  C          0.14221600       0.92828600       0.30061100
    22  C          0.64221600       0.57171400       0.69938900
    23  C          0.85778400       0.42828600       0.19938900
    24  C          0.35778400       0.07171400       0.80061100
    25  H          0.31790000       0.18670000       0.51980000
    26  H          0.81790000       0.31330000       0.48020000
    27  H          0.68210000       0.68670000       0.98020000
    28  H          0.18210000       0.81330000       0.01980000
    29  H          0.65510000       0.96990000       0.51510000
    30  H          0.15510000       0.53010000       0.48490000
    31  H          0.34490000       0.46990000       0.98490000
    32  H          0.84490000       0.03010000       0.01510000
    33  H          0.65580000       0.70580000       0.37410000
    34  H          0.15580000       0.79420000       0.62590000
    35  H          0.34420000       0.20580000       0.12590000
    36  H          0.84420000       0.29420000       0.87410000
    37  H          0.32930000       0.68920000       0.23080000
    38  H          0.82930000       0.81080000       0.76920000
    39  H          0.67070000       0.18920000       0.26920000
    40  H          0.17070000       0.31080000       0.73080000
    41  H          0.00310000       0.91670000       0.24260000
    42  H          0.50310000       0.58330000       0.75740000
    43  H         -0.00310000       0.41670000       0.25740000
    44  H          0.49690000       0.08330000       0.74260000
