data_PYRZIN
_symmetry_space_group_name_H-M    'P1'
_symmetry_Int_Tables_number       1
loop_
_symmetry_equiv_pos_site_id
_symmetry_equiv_pos_as_xyz
1 x,y,z
_cell_length_a                   23.072
_cell_length_b                   6.727
_cell_length_c                   3.725
_cell_angle_alpha                90.0
_cell_angle_beta                 101.0
_cell_angle_gamma                90.0
loop_
_atom_site_label
_atom_site_type_symbol
_atom_site_fract_x
_atom_site_fract_y
_atom_site_fract_z
     1  N          0.09010000       0.50760000       0.54450000
     2  N          0.40990000       0.00760000       0.45550000
     3  N          0.90990000       0.49240000       0.45550000
     4  N          0.59010000      -0.00760000       0.54450000
     5  H          0.11700000       0.75300000       0.78300000
     6  H          0.38300000       0.25300000       0.21700000
     7  H          0.88300000       0.24700000       0.21700000
     8  H          0.61700000       0.74700000       0.78300000
     9  H          0.00100000       0.32600000       0.36700000
    10  H          0.49900000       0.82600000       0.63300000
    11  H         -0.00100000       0.67400000       0.63300000
    12  H          0.50100000       0.17400000       0.36700000
    13  H          0.98200000       0.15600000       0.11300000
    14  H          0.51800000       0.65600000       0.88700000
    15  H          0.01800000       0.84400000       0.88700000
    16  H          0.48200000       0.34400000       0.11300000
    17  C          0.11050000       0.33340000       0.44300000
    18  C          0.38950000       0.83340000       0.55700000
    19  C          0.88950000       0.66660000       0.55700000
    20  C          0.61050000       0.16660000       0.44300000
    21  C          0.17020000       0.29080000       0.50100000
    22  C          0.32980000       0.79080000       0.49900000
    23  C          0.82980000       0.70920000       0.49900000
    24  C          0.67020000       0.20920000       0.50100000
    25  N          0.21120000       0.41920000       0.65600000
    26  N          0.28880000       0.91920000       0.34400000
    27  N          0.78880000       0.58080000       0.34400000
    28  N          0.71120000       0.08080000       0.65600000
    29  C          0.19120000       0.59500000       0.76000000
    30  C          0.30880000       0.09500000       0.24000000
    31  C          0.80880000       0.40500000       0.24000000
    32  C          0.69120000       0.90500000       0.76000000
    33  C          0.13190000       0.63800000       0.70350000
    34  C          0.36810000       0.13800000       0.29650000
    35  C          0.86810000       0.36200000       0.29650000
    36  C          0.63190000       0.86200000       0.70350000
    37  C          0.06570000       0.18530000       0.26200000
    38  C          0.43430000       0.68530000       0.73800000
    39  C          0.93430000       0.81470000       0.73800000
    40  C          0.56570000       0.31470000       0.26200000
    41  N          0.00990000       0.23360000       0.22500000
    42  N          0.49010000       0.73360000       0.77500000
    43  N          0.99010000       0.76640000       0.77500000
    44  N          0.50990000       0.26640000       0.22500000
    45  O          0.08290000       0.02980000       0.13680000
    46  O          0.41710000       0.52980000       0.86320000
    47  O          0.91710000       0.97020000       0.86320000
    48  O          0.58290000       0.47020000       0.13680000
    49  H          0.18100000       0.16700000       0.38000000
    50  H          0.31900000       0.66700000       0.62000000
    51  H          0.81900000       0.83300000       0.62000000
    52  H          0.68100000       0.33300000       0.38000000
    53  H          0.22100000       0.68500000       0.92000000
    54  H          0.27900000       0.18500000       0.08000000
    55  H          0.77900000       0.31500000       0.08000000
    56  H          0.72100000       0.81500000       0.92000000
