data_PYRZIN02
_symmetry_space_group_name_H-M    'P1'
_symmetry_Int_Tables_number       1
loop_
_symmetry_equiv_pos_site_id
_symmetry_equiv_pos_as_xyz
1 x,y,z
_cell_length_a                   5.7282
_cell_length_b                   5.2213
_cell_length_c                   9.9456
_cell_angle_alpha                96.815
_cell_angle_beta                 97.274
_cell_angle_gamma                106.224
loop_
_atom_site_label
_atom_site_type_symbol
_atom_site_fract_x
_atom_site_fract_y
_atom_site_fract_z
     1  C          0.11160000       0.48820000       0.77790000
     2  C          0.88840000       0.51180000       0.22210000
     3  C          0.92580000       0.58100000       0.71760000
     4  C          0.07420000       0.41900000       0.28240000
     5  C          0.19100000       0.84600000       0.60380000
     6  C          0.80900000       0.15400000       0.39620000
     7  C          0.37600000       0.75350000       0.66400000
     8  C          0.62400000       0.24650000       0.33600000
     9  C          0.06380000       0.28850000       0.87380000
    10  C          0.93620000       0.71150000       0.12620000
    11  H          0.79000000       0.51000000       0.74200000
    12  H          0.21000000       0.49000000       0.25800000
    13  H          0.20600000      -0.01500000       0.53400000
    14  H          0.79400000       0.01500000       0.46600000
    15  H          0.51000000       0.81900000       0.63500000
    16  H          0.49000000       0.18100000       0.36500000
    17  H          0.38100000       0.27900000       0.89200000
    18  H          0.61900000       0.72100000       0.10800000
    19  H          0.24500000       0.07600000      -0.00900000
    20  H          0.75500000       0.92400000       0.00900000
    21  N          0.34140000       0.57570000       0.74870000
    22  N          0.65860000       0.42430000       0.25130000
    23  N          0.96250000       0.75700000       0.63060000
    24  N          0.03750000       0.24300000       0.36940000
    25  N          0.25390000       0.21530000       0.92810000
    26  N          0.74610000       0.78470000       0.07190000
    27  O          0.84900000       0.19900000       0.89940000
    28  O          0.15100000       0.80100000       0.10060000
