data_PYRZIN17
_symmetry_space_group_name_H-M    'P1'
_symmetry_Int_Tables_number       1
loop_
_symmetry_equiv_pos_site_id
_symmetry_equiv_pos_as_xyz
1 x,y,z
_cell_length_a                   7.18304
_cell_length_b                   3.72912
_cell_length_c                   10.75815
_cell_angle_alpha                90.0
_cell_angle_beta                 106.7672
_cell_angle_gamma                90.0
loop_
_atom_site_label
_atom_site_type_symbol
_atom_site_fract_x
_atom_site_fract_y
_atom_site_fract_z
     1  O          0.22448000       0.88120000       0.67976000
     2  O          0.22448000       0.11880000       0.17976000
     3  N          0.25731000       0.04120000       0.88597000
     4  N          0.25731000       0.95880000       0.38597000
     5  H          0.37550000      -0.03010000       0.91760000
     6  H          0.37550000       0.03010000       0.41760000
     7  H          0.19670000       0.13670000       0.93580000
     8  H          0.19670000       0.86330000       0.43580000
     9  N          0.89771000       0.27221800       0.81846000
    10  N          0.89771000       0.72778200       0.31846000
    11  N          0.65289000       0.24820000       0.55466000
    12  N          0.65289000       0.75180000       0.05466000
    13  C          0.94838000       0.15320000       0.72116000
    14  C          0.94838000       0.84680000       0.22116000
    15  C          0.84661400       0.12930000       0.59538000
    16  C          0.84661400       0.87070000       0.09538000
    17  H          0.90420000       0.03480000       0.53530000
    18  H          0.90420000      -0.03480000       0.03530000
    19  C          0.60151700       0.36520000       0.65158000
    20  C          0.60151700       0.63480000       0.15158000
    21  H          0.47340000       0.44370000       0.63160000
    22  H          0.47340000       0.55630000       0.13160000
    23  C          0.70211300       0.39220000       0.77708000
    24  C          0.70211300       0.60780000       0.27708000
    25  H          0.64430000       0.48900000       0.83640000
    26  H          0.64430000       0.51100000       0.33640000
    27  C          0.17131200       0.00320000       0.76448000
    28  C          0.17131200      -0.00320000       0.26448000
