data_PYRZIN01
_symmetry_space_group_name_H-M    'P1'
_symmetry_Int_Tables_number       1
loop_
_symmetry_equiv_pos_site_id
_symmetry_equiv_pos_as_xyz
1 x,y,z
_cell_length_a                   14.3727
_cell_length_b                   3.7113
_cell_length_c                   10.7265
_cell_angle_alpha                90.0
_cell_angle_beta                 101.925
_cell_angle_gamma                90.0
loop_
_atom_site_label
_atom_site_type_symbol
_atom_site_fract_x
_atom_site_fract_y
_atom_site_fract_z
     1  C          0.23210000       0.61460000       0.06700000
     2  C          0.76790000       0.11460000       0.43300000
     3  C          0.76790000       0.38540000       0.93300000
     4  C          0.23210000       0.88540000       0.56700000
     5  C          0.28600000       0.61690000       0.18980000
     6  C          0.71400000       0.11690000       0.31020000
     7  C          0.71400000       0.38310000       0.81020000
     8  C          0.28600000       0.88310000       0.68980000
     9  C          0.41050000       0.38160000       0.11920000
    10  C          0.58950000       0.88160000       0.38080000
    11  C          0.58950000       0.61840000       0.88080000
    12  C          0.41050000       0.11840000       0.61920000
    13  C          0.35650000       0.37370000      -0.00330000
    14  C          0.64350000       0.87370000       0.50330000
    15  C          0.64350000       0.62630000       0.00330000
    16  C          0.35650000       0.12630000       0.49670000
    17  C          0.13240000       0.76680000       0.04100000
    18  C          0.86760000       0.26680000       0.45900000
    19  C          0.86760000       0.23320000       0.95900000
    20  C          0.13240000       0.73320000       0.54100000
    21  H          0.26100000       0.70400000       0.26100000
    22  H          0.73900000       0.20400000       0.23900000
    23  H          0.73900000       0.29600000       0.73900000
    24  H          0.26100000       0.79600000       0.76100000
    25  H          0.47900000       0.29800000       0.13700000
    26  H          0.52100000       0.79800000       0.36300000
    27  H          0.52100000       0.70200000       0.86300000
    28  H          0.47900000       0.20200000       0.63700000
    29  H          0.38000000       0.29000000       0.92500000
    30  H          0.62000000       0.79000000       0.57500000
    31  H          0.62000000       0.71000000       0.07500000
    32  H          0.38000000       0.21000000       0.42500000
    33  H          0.10900000       0.65800000       0.86600000
    34  H          0.89100000       0.15800000       0.63400000
    35  H          0.89100000       0.34200000       0.13400000
    36  H          0.10900000       0.84200000       0.36600000
    37  H          0.02100000       0.82900000       0.89900000
    38  H          0.97900000       0.32900000       0.60100000
    39  H          0.97900000       0.17100000       0.10100000
    40  H          0.02100000       0.67100000       0.39900000
    41  N          0.26700000       0.49160000       0.96940000
    42  N          0.73300000      -0.00840000       0.53060000
    43  N          0.73300000       0.50840000       0.03060000
    44  N          0.26700000       0.00840000       0.46940000
    45  N          0.37580000       0.50180000       0.21730000
    46  N          0.62420000       0.00180000       0.28270000
    47  N          0.62420000       0.49820000       0.78270000
    48  N          0.37580000      -0.00180000       0.71730000
    49  N          0.08460000       0.74710000       0.92130000
    50  N          0.91540000       0.24710000       0.57870000
    51  N          0.91540000       0.25290000       0.07870000
    52  N          0.08460000       0.75290000       0.42130000
    53  O          0.10170000       0.90330000       0.12910000
    54  O          0.89830000       0.40330000       0.37090000
    55  O          0.89830000       0.09670000       0.87090000
    56  O          0.10170000       0.59670000       0.62910000
