data_QAPKOH01
_symmetry_space_group_name_H-M    'P1'
_symmetry_Int_Tables_number       1
loop_
_symmetry_equiv_pos_site_id
_symmetry_equiv_pos_as_xyz
1 x,y,z
_cell_length_a                   9.260019
_cell_length_b                   9.9302
_cell_length_c                   10.8202
_cell_angle_alpha                79.373
_cell_angle_beta                 65.463
_cell_angle_gamma                68.973
loop_
_atom_site_label
_atom_site_type_symbol
_atom_site_fract_x
_atom_site_fract_y
_atom_site_fract_z
     1  C          0.74159150       0.73462130       0.94471120
     2  C          0.25840850       0.26537870       0.05528880
     3  C          0.83593150       0.69894130       0.80212120
     4  C          0.16406850       0.30105870       0.19787880
     5  C          0.08536160       0.64042140       0.83091130
     6  C          0.91463840       0.35957860       0.16908870
     7  C          0.00089160       0.67125130       0.96918130
     8  C         -0.00089160       0.32874870       0.03081870
     9  C          0.09138180       0.65443140       0.05007150
    10  C          0.90861820       0.34556860       0.94992850
    11  H          0.03580000       0.67320000       0.14210000
    12  H          0.96420000       0.32680000       0.85790000
    13  C          0.26236190       0.61016160      -0.00709830
    14  C          0.73763810       0.38983840       0.00709830
    15  H          0.32270000       0.59940000       0.04660000
    16  H          0.67730000       0.40060000       0.95340000
    17  C          0.34729190       0.58096170       0.85560170
    18  C          0.65270810       0.41903830       0.14439830
    19  H          0.46360000       0.55150000       0.81810000
    20  H          0.53640000       0.44850000       0.18190000
    21  C          0.26061170       0.59536170       0.77566150
    22  C          0.73938830       0.40463830       0.22433850
    23  H          0.31820000       0.57520000       0.68400000
    24  H          0.68180000       0.42480000       0.31600000
    25  C          0.56558160       0.78030140       0.00597120
    26  C          0.43441840       0.21969860      -0.00597120
    27  H          0.50480000       0.79090000       0.95270000
    28  H          0.49520000       0.20910000       0.04730000
    29  C          0.47905170       0.81020140       0.14319130
    30  C          0.52094830       0.18979860       0.85680870
    31  C          0.29337170       0.85554150       0.20437140
    32  C          0.70662830       0.14445850       0.79562860
    33  C          0.19555170       0.93356150       0.13177160
    34  C          0.80444830       0.06643850       0.86822840
    35  H          0.24590000       0.95840000       0.04040000
    36  H          0.75410000       0.04160000       0.95960000
    37  C          0.02262000       0.97517180       0.19402000
    38  C          0.97738000       0.02482820       0.80598000
    39  H          0.95690000       0.02960000       0.14530000
    40  H          0.04310000       0.97040000       0.85470000
    41  C          0.94898000       0.93533000       0.32832000
    42  C          0.05102000       0.06467000       0.67168000
    43  H          0.83300000       0.96150000       0.37000000
    44  H          0.16700000       0.03850000       0.63000000
    45  C          0.04453000       0.85803000       0.40072000
    46  C          0.95547000       0.14197000       0.59928000
    47  H          0.99350000       0.83170000       0.49150000
    48  H          0.00650000       0.16830000       0.50850000
    49  C          0.21512000       0.81872000       0.34063160
    50  C          0.78488000       0.18128000       0.65936840
    51  H          0.27940000       0.76700000       0.39120000
    52  H          0.72060000       0.23300000       0.60880000
    53  C          0.75067150       0.70650140       0.70989120
    54  C          0.24932850       0.29349860       0.29010880
    55  C          0.80435170       0.58850170       0.63179130
    56  C          0.19564830       0.41149830       0.36820870
    57  H          0.88750000       0.50560000       0.64210000
    58  H          0.11250000       0.49440000       0.35790000
    59  C          0.73602000       0.59302000       0.53972160
    60  C          0.26398000       0.40698000       0.46027840
    61  H          0.77320000       0.51350000       0.48780000
    62  H          0.22680000       0.48650000       0.51220000
    63  C          0.61352000       0.71403000       0.52410160
    64  C          0.38648000       0.28597000       0.47589840
    65  H          0.56740000       0.71690000       0.46150000
    66  H          0.43260000       0.28310000       0.53850000
    67  C          0.55822000       0.83152000       0.60121180
    68  C          0.44178000       0.16848000       0.39878820
    69  H          0.47390000       0.91330000       0.59100000
    70  H          0.52610000       0.08670000       0.40900000
    71  C          0.62686170       0.82900170       0.69358140
    72  C          0.37313830       0.17099830       0.30641860
    73  H          0.59000000       0.90920000       0.74450000
    74  H          0.41000000       0.09080000       0.25550000
    75  H          0.73230000       0.74730000       0.13130000
    76  H          0.26770000       0.25270000       0.86870000
    77  N         -0.00110870       0.65370120       0.74958100
    78  N          0.00110870       0.34629880       0.25041900
    79  N          0.82973130       0.71825110       0.02157110
    80  N          0.17026870       0.28174890       0.97842890
    81  O          0.55376130       0.79817120       0.22405900
    82  O          0.44623870       0.20182880       0.77594100
