data_QAPKOH
_symmetry_space_group_name_H-M    'P1'
_symmetry_Int_Tables_number       1
loop_
_symmetry_equiv_pos_site_id
_symmetry_equiv_pos_as_xyz
1 x,y,z
_cell_length_a                   10.90501
_cell_length_b                   5.8302
_cell_length_c                   26.1502
_cell_angle_alpha                90.0
_cell_angle_beta                 95.63903
_cell_angle_gamma                90.0
loop_
_atom_site_label
_atom_site_type_symbol
_atom_site_fract_x
_atom_site_fract_y
_atom_site_fract_z
     1  O          0.31584000       0.72722000       0.79791000
     2  O          0.68416000       0.22722000       0.70209000
     3  O          0.68416000       0.27278000       0.20209000
     4  O          0.31584000       0.77278000       0.29791000
     5  N          0.41915000       0.07129000       0.84792000
     6  N          0.58085000       0.57129000       0.65208000
     7  N          0.58085000       0.92871000       0.15208000
     8  N          0.41915000       0.42871000       0.34792000
     9  N          0.42675000       0.35810000       0.93222000
    10  N          0.57325000       0.85810000       0.56778000
    11  N          0.57325000       0.64190000       0.06778000
    12  N          0.42675000       0.14190000       0.43222000
    13  C          0.34545000       0.02310000       0.88482000
    14  C          0.65455000       0.52310000       0.61518000
    15  C          0.65455000      -0.02310000       0.11518000
    16  C          0.34545000       0.47690000       0.38482000
    17  C          0.35605000       0.17610000       0.92892000
    18  C          0.64395000       0.67610000       0.57108000
    19  C          0.64395000       0.82390000       0.07108000
    20  C          0.35605000       0.32390000       0.42892000
    21  C          0.49796000       0.40310000       0.89213000
    22  C          0.50204000       0.90310000       0.60787000
    23  C          0.50204000       0.59690000       0.10787000
    24  C          0.49796000       0.09690000       0.39213000
    25  C          0.57326000       0.59510000       0.89413000
    26  C          0.42674000       0.09510000       0.60587000
    27  C          0.42674000       0.40490000       0.10587000
    28  C          0.57326000       0.90490000       0.39413000
    29  C          0.64336000       0.64110000       0.85503000
    30  C          0.35664000       0.14110000       0.64497000
    31  C          0.35664000       0.35890000       0.14497000
    32  C          0.64336000       0.85890000       0.35503000
    33  C          0.64186000       0.49210000       0.81303000
    34  C          0.35814000      -0.00790000       0.68697000
    35  C          0.35814000       0.50790000       0.18697000
    36  C          0.64186000       0.00790000       0.31303000
    37  C          0.56896000       0.30210000       0.81033000
    38  C          0.43104000       0.80210000       0.68967000
    39  C          0.43104000       0.69790000       0.18967000
    40  C          0.56896000       0.19790000       0.31033000
    41  C          0.49566000       0.25710000       0.84952000
    42  C          0.50434000       0.75710000       0.65048000
    43  C          0.50434000       0.74290000       0.15048000
    44  C          0.49566000       0.24290000       0.34952000
    45  C          0.26145000       0.84290000       0.87842000
    46  C          0.73855000       0.34290000       0.62158000
    47  C          0.73855000       0.15710000       0.12158000
    48  C          0.26145000       0.65710000       0.37842000
    49  C          0.24735000       0.70490000       0.83462000
    50  C          0.75265000       0.20490000       0.66538000
    51  C          0.75265000       0.29510000       0.16538000
    52  C          0.24735000       0.79510000       0.33462000
    53  C          0.15085000       0.52290000       0.82842000
    54  C          0.84915000       0.02290000       0.67158000
    55  C          0.84915000       0.47710000       0.17158000
    56  C          0.15085000      -0.02290000       0.32842000
    57  C          0.04796000       0.52990000       0.85542000
    58  C          0.95204000       0.02990000       0.64458000
    59  C          0.95204000       0.47010000       0.14458000
    60  C          0.04796000       0.97010000       0.35542000
    61  C          0.95934000       0.36090000       0.84773000
    62  C          0.04066000       0.86090000       0.65227000
    63  C          0.04066000       0.63910000       0.15227000
    64  C          0.95934000       0.13910000       0.34773000
    65  C          0.97313000       0.18590000       0.81393000
    66  C          0.02687000       0.68590000       0.68607000
    67  C          0.02687000       0.81410000       0.18607000
    68  C          0.97313000       0.31410000       0.31393000
    69  C          0.07567000       0.17690000       0.78702000
    70  C          0.92433000       0.67690000       0.71298000
    71  C          0.92433000       0.82310000       0.21298000
    72  C          0.07567000       0.32310000       0.28702000
    73  C          0.16326000       0.34490000       0.79412000
    74  C          0.83674000       0.84490000       0.70588000
    75  C          0.83674000       0.65510000       0.20588000
    76  C          0.16326000       0.15510000       0.29412000
    77  C          0.28226000       0.13110000       0.97252000
    78  C          0.71774000       0.63110000       0.52748000
    79  C          0.71774000       0.86890000       0.02748000
    80  C          0.28226000       0.36890000       0.47252000
    81  C          0.19656000       0.29210000       0.98562000
    82  C          0.80344000       0.79210000       0.51438000
    83  C          0.80344000       0.70790000       0.01438000
    84  C          0.19656000       0.20790000       0.48562000
    85  C          0.12497000       0.25110000       0.02522000
    86  C          0.87503000       0.75110000       0.47478000
    87  C          0.87503000       0.74890000       0.97478000
    88  C          0.12497000       0.24890000       0.52522000
    89  C          0.13897000       0.05310000       0.05303000
    90  C          0.86103000       0.55310000       0.44697000
    91  C          0.86103000       0.94690000       0.94697000
    92  C          0.13897000       0.44690000       0.55303000
    93  C          0.22577000       0.89190000       0.04132000
    94  C          0.77423000       0.39190000       0.45868000
    95  C          0.77423000       0.10810000       0.95868000
    96  C          0.22577000       0.60810000       0.54132000
    97  C          0.29516000       0.92990000       0.00132000
    98  C          0.70484000       0.42990000       0.49868000
    99  C          0.70484000       0.07010000      -0.00132000
   100  C          0.29516000       0.57010000       0.50132000
   101  H          0.41815000      -0.01979000       0.82202000
   102  H          0.58185000       0.48021000       0.67798000
   103  H          0.58185000       0.01979000       0.17798000
   104  H          0.41815000       0.51979000       0.32202000
   105  H          0.57606000       0.69310000       0.92233000
   106  H          0.42394000       0.19310000       0.57767000
   107  H          0.42394000       0.30690000       0.07767000
   108  H          0.57606000       0.80690000       0.42233000
   109  H          0.69246000       0.77210000       0.85623000
   110  H          0.30754000       0.27210000       0.64377000
   111  H          0.30754000       0.22790000       0.14377000
   112  H          0.69246000       0.72790000       0.35623000
   113  H          0.69096000       0.52310000       0.78673000
   114  H          0.30904000       0.02310000       0.71327000
   115  H          0.30904000       0.47690000       0.21327000
   116  H          0.69096000      -0.02310000       0.28673000
   117  H          0.56836000       0.20410000       0.78243000
   118  H          0.43164000       0.70410000       0.71757000
   119  H          0.43164000       0.79590000       0.21757000
   120  H          0.56836000       0.29590000       0.28243000
   121  H          0.21205000       0.81390000       0.90472000
   122  H          0.78795000       0.31390000       0.59528000
   123  H          0.78795000       0.18610000       0.09528000
   124  H          0.21205000       0.68610000       0.40472000
   125  H          0.03846000       0.64690000       0.87872000
   126  H          0.96154000       0.14690000       0.62128000
   127  H          0.96154000       0.35310000       0.12128000
   128  H          0.03846000       0.85310000       0.37872000
   129  H          0.88974000       0.36590000       0.86563000
   130  H          0.11026000       0.86590000       0.63437000
   131  H          0.11026000       0.63410000       0.13437000
   132  H          0.88974000       0.13410000       0.36563000
   133  H          0.91323000       0.07190000       0.80913000
   134  H          0.08677000       0.57190000       0.69087000
   135  H          0.08677000       0.92810000       0.19087000
   136  H          0.91323000       0.42810000       0.30913000
   137  H          0.08527000       0.05690000       0.76422000
   138  H          0.91473000       0.55690000       0.73578000
   139  H          0.91473000       0.94310000       0.23578000
   140  H          0.08527000       0.44310000       0.26422000
   141  H          0.23196000       0.33990000       0.77572000
   142  H          0.76804000       0.83990000       0.72428000
   143  H          0.76804000       0.66010000       0.22428000
   144  H          0.23196000       0.16010000       0.27572000
   145  H          0.18756000       0.42910000       0.96752000
   146  H          0.81244000       0.92910000       0.53248000
   147  H          0.81244000       0.57090000       0.03248000
   148  H          0.18756000       0.07090000       0.46752000
   149  H          0.06667000       0.35810000       0.03302000
   150  H          0.93333000       0.85810000       0.46698000
   151  H          0.93333000       0.64190000       0.96698000
   152  H          0.06667000       0.14190000       0.53302000
   153  H          0.09057000       0.02710000       0.07983000
   154  H          0.90943000       0.52710000       0.42017000
   155  H          0.90943000       0.97290000       0.92017000
   156  H          0.09057000       0.47290000       0.57983000
   157  H          0.23667000       0.75790000       0.06062000
   158  H          0.76333000       0.25790000       0.43938000
   159  H          0.76333000       0.24210000       0.93938000
   160  H          0.23667000       0.74210000       0.56062000
   161  H          0.35186000       0.81990000       0.99312000
   162  H          0.64814000       0.31990000       0.50688000
   163  H          0.64814000       0.18010000       0.00688000
   164  H          0.35186000       0.68010000       0.49312000
