data_QAPKOH02
_symmetry_space_group_name_H-M    'P1'
_symmetry_Int_Tables_number       1
loop_
_symmetry_equiv_pos_site_id
_symmetry_equiv_pos_as_xyz
1 x,y,z
_cell_length_a                   8.75129
_cell_length_b                   8.83771
_cell_length_c                   11.18321
_cell_angle_alpha                90.1018
_cell_angle_beta                 91.3448
_cell_angle_gamma                106.9849
loop_
_atom_site_label
_atom_site_type_symbol
_atom_site_fract_x
_atom_site_fract_y
_atom_site_fract_z
     1  O          0.47551150       0.32624170       0.15376110
     2  O          0.52448850       0.67375830       0.84623890
     3  N          0.46105160       0.53295190       0.31248120
     4  N          0.53894840       0.46704810       0.68751880
     5  H          0.42020000       0.44040000       0.28150000
     6  H          0.57980000       0.55960000       0.71850000
     7  N          0.59489190       0.82802000       0.41460140
     8  N          0.40510810       0.17198000       0.58539860
     9  C          0.38892000       0.57582000       0.40911150
    10  C          0.61108000       0.42418000       0.59088850
    11  C          0.25182000       0.47433000       0.45705160
    12  C          0.74818000       0.52567000       0.54294840
    13  H          0.20620000       0.37420000       0.42380000
    14  H          0.79380000       0.62580000       0.57620000
    15  C          0.18462000       0.52343000       0.55398180
    16  C          0.81538000       0.47657000       0.44601820
    17  H          0.09360000       0.45550000       0.58690000
    18  H          0.90640000       0.54450000       0.41310000
    19  C          0.25043000       0.67243000       0.60324190
    20  C          0.74957000       0.32757000       0.39675810
    21  H          0.20240000       0.70430000       0.66810000
    22  H          0.79760000       0.29570000       0.33190000
    23  C          0.38573000       0.77343000       0.55730180
    24  C          0.61427000       0.22657000       0.44269820
    25  H          0.42980000       0.87340000       0.59100000
    26  H          0.57020000       0.12660000       0.40900000
    27  C          0.45752000       0.72542000       0.45922160
    28  C          0.54248000       0.27458000       0.54077840
    29  C          0.65822000       0.78372000       0.32091160
    30  C          0.34178000       0.21628000       0.67908840
    31  C          0.59262000       0.62932000       0.26424150
    32  C          0.40738000       0.37068000       0.73575850
    33  C          0.66192000       0.57782000       0.16639150
    34  C          0.33808000       0.42218000       0.83360850
    35  H          0.75330000       0.64670000       0.13480000
    36  H          0.24670000       0.35330000       0.86520000
    37  C          0.60062000       0.42862000       0.11417150
    38  C          0.39938000       0.57138000       0.88582850
    39  C          0.67742000       0.37812000       0.00905150
    40  C          0.32258000       0.62188000      -0.00905150
    41  C          0.62192000       0.22373000       0.96845820
    42  C          0.37808000       0.77627000       0.03154180
    43  H          0.53870000       0.15260000       0.00760000
    44  H          0.46130000       0.84740000      -0.00760000
    45  C          0.68783000       0.17303000       0.87078000
    46  C          0.31217000       0.82697000       0.12922000
    47  H          0.64920000       0.06870000       0.84430000
    48  H          0.35080000       0.93130000       0.15570000
    49  C          0.81013000       0.27723000       0.81342810
    50  C          0.18987000       0.72277000       0.18657190
    51  H          0.85510000       0.24360000       0.74770000
    52  H          0.14490000       0.75640000       0.25230000
    53  C          0.86663000       0.43053000       0.85216810
    54  C          0.13337000       0.56947000       0.14783190
    55  H          0.95010000       0.50090000       0.81280000
    56  H          0.04990000       0.49910000       0.18720000
    57  C          0.80062000       0.48143000       0.94926830
    58  C          0.19938000       0.51857000       0.05073170
    59  H          0.83940000       0.58620000       0.97480000
    60  H          0.16060000       0.41380000       0.02520000
    61  C          0.80702000       0.89842000       0.27722160
    62  C          0.19298000       0.10158000       0.72277840
    63  C          0.94332000       0.93733000       0.34850180
    64  C          0.05668000       0.06267000       0.65149820
    65  H          0.94230000       0.88940000       0.42260000
    66  H          0.05770000       0.11060000       0.57740000
    67  C          0.08123000       0.04613000       0.31182000
    68  C          0.91877000       0.95387000       0.68818000
    69  H          0.17290000       0.06980000       0.36030000
    70  H          0.82710000       0.93020000       0.63970000
    71  C          0.08333000       0.11963000       0.20382000
    72  C          0.91667000       0.88037000       0.79618000
    73  H          0.17590000       0.19400000       0.17920000
    74  H          0.82410000       0.80600000       0.82080000
    75  C          0.94813000       0.08263000       0.13232000
    76  C          0.05187000       0.91737000       0.86768000
    77  H          0.94860000       0.13260000       0.05920000
    78  H          0.05140000       0.86740000       0.94080000
    79  C          0.81173000       0.97163000       0.16847190
    80  C          0.18827000       0.02837000       0.83152810
    81  H          0.72110000       0.94570000       0.11850000
    82  H          0.27890000       0.05430000       0.88150000
