data_QAXMEH03
_symmetry_space_group_name_H-M    'P1'
_symmetry_Int_Tables_number       1
loop_
_symmetry_equiv_pos_site_id
_symmetry_equiv_pos_as_xyz
1 x,y,z
_cell_length_a                   7.97609
_cell_length_b                   13.3192
_cell_length_c                   11.6761
_cell_angle_alpha                90.0
_cell_angle_beta                 104.6838
_cell_angle_gamma                90.0
loop_
_atom_site_label
_atom_site_type_symbol
_atom_site_fract_x
_atom_site_fract_y
_atom_site_fract_z
     1  S          0.06803900       0.83429500       0.53744500
     2  S          0.43196100       0.33429500       0.96255500
     3  S          0.93196100       0.16570500       0.46255500
     4  S          0.56803900       0.66570500       0.03744500
     5  O          0.17033000       0.54092000      -0.01178000
     6  O          0.32967000       0.04092000       0.51178000
     7  O          0.82967000       0.45908000       0.01178000
     8  O          0.67033000       0.95908000       0.48822000
     9  O          0.07354000       0.51332000       0.80232000
    10  O          0.42646000       0.01332000       0.69768000
    11  O          0.92646000       0.48668000       0.19768000
    12  O          0.57354000       0.98668000       0.30232000
    13  N         -0.00603000       0.67122000       0.66152000
    14  N          0.50603000       0.17122000       0.83848000
    15  N          0.00603000       0.32878000       0.33848000
    16  N          0.49397000       0.82878000       0.16152000
    17  N          0.09213000       0.56852000       0.88882000
    18  N          0.40787000       0.06852000       0.61118000
    19  N          0.90787000       0.43148000       0.11118000
    20  N          0.59213000       0.93148000       0.38882000
    21  N          0.77487000       0.50012000       0.42542000
    22  N          0.72513000       0.00012000       0.07458000
    23  N          0.22513000       0.49988000       0.57458000
    24  N          0.27487000      -0.00012000       0.92542000
    25  C          0.04804000       0.91012000       0.31093000
    26  C          0.45196000       0.41012000       0.18907000
    27  C          0.95196000       0.08988000       0.68907000
    28  C          0.54804000       0.58988000       0.81093000
    29  C          0.83477000       0.57822000       0.43322000
    30  C          0.66523000       0.07822000       0.06678000
    31  C          0.16523000       0.42178000       0.56678000
    32  C          0.33477000       0.92178000       0.93322000
    33  C          0.96797000       0.71502000       0.76282000
    34  C          0.53203000       0.21502000       0.73718000
    35  C          0.03203000       0.28498000       0.23718000
    36  C          0.46797000       0.78498000       0.26282000
    37  C          0.01733000       0.66792000       0.87412000
    38  C          0.48267000       0.16792000       0.62588000
    39  C         -0.01733000       0.33208000       0.12588000
    40  C          0.51733000       0.83208000       0.37412000
    41  C         -0.00614000       0.71513000       0.97532000
    42  C          0.50614000       0.21513000       0.52468000
    43  C          0.00614000       0.28487000       0.02468000
    44  C          0.49386000       0.78487000       0.47532000
    45  C          0.92066000       0.80763000       0.96863000
    46  C          0.57934000       0.30763000       0.53137000
    47  C          0.07934000       0.19237000       0.03137000
    48  C          0.42066000       0.69237000       0.46863000
    49  C          0.86906000       0.85512000       0.86023000
    50  C          0.63094000       0.35512000       0.63977000
    51  C          0.13094000       0.14488000       0.13977000
    52  C          0.36906000       0.64488000       0.36023000
    53  C          0.89096000       0.80992000       0.75913000
    54  C          0.60904000       0.30992000       0.74087000
    55  C          0.10904000       0.19008000       0.24087000
    56  C          0.39096000       0.69008000       0.25913000
    57  C         -0.02033000       0.71862000       0.55342000
    58  C          0.52033000       0.21862000       0.94658000
    59  C          0.02033000       0.28138000       0.44658000
    60  C          0.47967000       0.78138000       0.05342000
    61  C          0.91297000       0.67542000       0.44562000
    62  C          0.58703000       0.17542000       0.05438000
    63  C          0.08703000       0.32458000       0.55438000
    64  C          0.41297000       0.82458000       0.94562000
    65  C          0.93097000       0.73692000       0.34912000
    66  C          0.56903000       0.23692000       0.15088000
    67  C          0.06903000       0.26308000       0.65088000
    68  C          0.43097000       0.76308000       0.84912000
    69  C          0.01073000       0.82572000       0.38462000
    70  C          0.48927000       0.32572000       0.11538000
    71  C         -0.01073000       0.17428000       0.61538000
    72  C          0.51073000       0.67428000       0.88462000
    73  H          0.01740000       0.61330000       0.66130000
    74  H          0.48260000       0.11330000       0.83870000
    75  H         -0.01740000       0.38670000       0.33870000
    76  H          0.51740000       0.88670000       0.16130000
    77  H          0.02874000       0.68293000       0.04812000
    78  H          0.47126000       0.18293000       0.45188000
    79  H          0.97126000       0.31707000       0.95188000
    80  H          0.52874000       0.81707000       0.54812000
    81  H          0.90546000       0.83883000       0.03653000
    82  H          0.59454000       0.33883000       0.46347000
    83  H          0.09454000       0.16117000       0.96347000
    84  H          0.40546000       0.66117000       0.53653000
    85  H          0.81876000       0.91852000       0.85543000
    86  H          0.68124000       0.41852000       0.64457000
    87  H          0.18124000       0.08148000       0.14457000
    88  H          0.31876000       0.58148000       0.35543000
    89  H          0.85406000       0.84292000       0.68693000
    90  H          0.64594000       0.34292000       0.81307000
    91  H          0.14594000       0.15708000       0.31307000
    92  H          0.35406000       0.65708000       0.18693000
    93  H          0.89197000       0.71792000       0.27012000
    94  H          0.60803000       0.21792000       0.22988000
    95  H          0.10803000       0.28208000       0.72988000
    96  H          0.39197000       0.78208000       0.77012000
    97  H          0.17045000       0.92310000       0.33110000
    98  H          0.32955000       0.42310000       0.16890000
    99  H          0.82955000       0.07690000       0.66890000
   100  H          0.67045000       0.57690000       0.83110000
   101  H         -0.01220000       0.96925000       0.32610000
   102  H          0.51220000       0.46925000       0.17390000
   103  H          0.01220000       0.03075000       0.67390000
   104  H          0.48780000       0.53075000       0.82610000
   105  H          0.01020000       0.89256000       0.22873000
   106  H          0.48980000       0.39256000       0.27127000
   107  H         -0.01020000       0.10744000       0.77127000
   108  H          0.51020000       0.60744000       0.72873000
