data_QAXMEH59
_symmetry_space_group_name_H-M    'P1'
_symmetry_Int_Tables_number       1
loop_
_symmetry_equiv_pos_site_id
_symmetry_equiv_pos_as_xyz
1 x,y,z
_cell_length_a                   3.96968
_cell_length_b                   22.5915
_cell_length_c                   12.7052
_cell_angle_alpha                90.0
_cell_angle_beta                 97.23114
_cell_angle_gamma                90.0
loop_
_atom_site_label
_atom_site_type_symbol
_atom_site_fract_x
_atom_site_fract_y
_atom_site_fract_z
     1  C          0.15451300       0.28062000       0.57124000
     2  C          0.84548700       0.78062000       0.92876000
     3  C          0.84548700       0.71938000       0.42876000
     4  C          0.15451300       0.21938000       0.07124000
     5  C          0.57521300       0.37142000       0.24644000
     6  C          0.42478700       0.87142000       0.25356000
     7  C          0.42478700       0.62858000       0.75356000
     8  C          0.57521300       0.12858000       0.74644000
     9  H          0.41275700       0.39806800       0.20593600
    10  H          0.58724300       0.89806800       0.29406400
    11  H          0.58724300       0.60193200       0.79406400
    12  H          0.41275700       0.10193200       0.70593600
    13  H          0.56892100       0.33266900       0.21144500
    14  H          0.43107900       0.83266900       0.28855500
    15  H          0.43107900       0.66733100       0.78855500
    16  H          0.56892100       0.16733100       0.71144500
    17  H          0.80428100       0.38802300       0.24996600
    18  H          0.19571900       0.88802300       0.25003400
    19  H          0.19571900       0.61197700       0.75003400
    20  H          0.80428100       0.11197700       0.74996600
    21  C          0.39741300       0.39652000       0.73913000
    22  C          0.60258700       0.89652000       0.76087000
    23  C          0.60258700       0.60348000       0.26087000
    24  C          0.39741300       0.10348000       0.23913000
    25  C          0.32221200       0.43132000       0.82603000
    26  C          0.67778800       0.93132000       0.67397000
    27  C          0.67778800       0.56868000       0.17397000
    28  C          0.32221200       0.06868000       0.32603000
    29  C          0.43701300       0.41552000       0.93014000
    30  C          0.56298700       0.91552000       0.56986000
    31  C          0.56298700       0.58448000       0.06986000
    32  C          0.43701300       0.08448000       0.43014000
    33  H          0.38023400       0.43943700       0.98678600
    34  H          0.61976600       0.93943700       0.51321400
    35  H          0.61976600       0.56056300       0.01321400
    36  H          0.38023400       0.06056300       0.48678600
    37  C          0.63201400       0.36562000       0.95194000
    38  C          0.36798600       0.86562000       0.54806000
    39  C          0.36798600       0.63438000       0.04806000
    40  C          0.63201400       0.13438000       0.45194000
    41  H          0.70963500       0.35474300       0.02302100
    42  H          0.29036500       0.85474300       0.47697900
    43  H          0.29036500       0.64525700       0.97697900
    44  H          0.70963500       0.14525700       0.52302100
    45  C          0.71341300       0.33132000       0.86734000
    46  C          0.28658700       0.83132000       0.63266000
    47  C          0.28658700       0.66868000       0.13266000
    48  C          0.71341300       0.16868000       0.36734000
    49  H          0.84941600       0.29694900       0.88193100
    50  H          0.15058400       0.79694900       0.61806900
    51  H          0.15058400       0.70305100       0.11806900
    52  H          0.84941600       0.20305100       0.38193100
    53  C          0.60321200       0.34562000       0.76394000
    54  C          0.39678800       0.84562000       0.73606000
    55  C          0.39678800       0.65438000       0.23606000
    56  C          0.60321200       0.15438000       0.26394000
    57  H          0.66465700       0.32131500       0.70826400
    58  H          0.33534300       0.82131500       0.79173600
    59  H          0.33534300       0.67868500       0.29173600
    60  H          0.66465700       0.17868500       0.20826400
    61  C          0.35601200       0.38192000       0.54313000
    62  C          0.64398800       0.88192000       0.95687000
    63  C          0.64398800       0.61808000       0.45687000
    64  C          0.35601200       0.11808000       0.04313000
    65  C          0.29631300       0.32492000       0.51004000
    66  C          0.70368700       0.82492000      -0.01004000
    67  C          0.70368700       0.67508000       0.48996000
    68  C          0.29631300       0.17508000       0.01004000
    69  C          0.37331300       0.31562000       0.40384000
    70  C          0.62668700       0.81562000       0.09616000
    71  C          0.62668700       0.68438000       0.59616000
    72  C          0.37331300       0.18438000       0.90384000
    73  H          0.34955900       0.27822300       0.36929800
    74  H          0.65044100       0.77822300       0.13070200
    75  H          0.65044100       0.72177700       0.63070200
    76  H          0.34955900       0.22177700       0.86929800
    77  C          0.48171300       0.36422000       0.35773000
    78  C          0.51828700       0.86422000       0.14227000
    79  C          0.51828700       0.63578000       0.64227000
    80  C          0.48171300       0.13578000       0.85773000
    81  N          0.28441100       0.41087180       0.63493000
    82  N          0.71558900       0.91087180       0.86507000
    83  N          0.71558900       0.58912820       0.36507000
    84  N          0.28441100       0.08912820       0.13493000
    85  H          0.15118500       0.44203400       0.62512100
    86  H          0.84881500       0.94203400       0.87487900
    87  H          0.84881500       0.55796600       0.37487900
    88  H          0.15118500       0.05796600       0.12512100
    89  N          0.11701100       0.48445190       0.81073000
    90  N          0.88298900       0.98445190       0.68927000
    91  N          0.88298900       0.51554810       0.18927000
    92  N          0.11701100       0.01554810       0.31073000
    93  N          0.03731200       0.24502000       0.62103000
    94  N         -0.03731200       0.74502000       0.87897000
    95  N         -0.03731200       0.75498000       0.37897000
    96  N          0.03731200       0.25498000       0.12103000
    97  O         -0.00421000       0.49936160       0.71933000
    98  O          0.00421000      -0.00063840       0.78067000
    99  O          0.00421000       0.50063840       0.28067000
   100  O         -0.00421000       0.00063840       0.21933000
   101  O          0.06831000       0.51357170       0.88893000
   102  O          0.93169000       0.01357170       0.61107000
   103  O          0.93169000       0.48642830       0.11107000
   104  O          0.06831000       0.98642830       0.38893000
   105  S          0.50913000       0.42348500       0.44551800
   106  S          0.49087000       0.92348500       0.05448200
   107  S          0.49087000       0.57651500       0.55448200
   108  S          0.50913000       0.07651500       0.94551800
