data_QAXMEH60
_symmetry_space_group_name_H-M    'P1'
_symmetry_Int_Tables_number       1
loop_
_symmetry_equiv_pos_site_id
_symmetry_equiv_pos_as_xyz
1 x,y,z
_cell_length_a                   4.02863
_cell_length_b                   23.273916
_cell_length_c                   12.57991
_cell_angle_alpha                90.0
_cell_angle_beta                 96.5045
_cell_angle_gamma                90.0
loop_
_atom_site_label
_atom_site_type_symbol
_atom_site_fract_x
_atom_site_fract_y
_atom_site_fract_z
     1  C          0.24131800       0.56633000       0.57486000
     2  C          0.75868200       0.06633000       0.92514000
     3  C          0.75868200       0.43367000       0.42514000
     4  C          0.24131800       0.93367000       0.07486000
     5  C          0.67121600       0.42222000       0.86156000
     6  C          0.32878400       0.92222000       0.63844000
     7  C          0.32878400       0.57778000       0.13844000
     8  C          0.67121600       0.07778000       0.36156000
     9  H          0.57329000       0.38953300       0.81993400
    10  H          0.42671000       0.88953300       0.68006600
    11  H          0.42671000       0.61046700       0.18006600
    12  H          0.57329000       0.11046700       0.31993400
    13  H          0.57026400       0.42523800       0.92853900
    14  H          0.42973600       0.92523800       0.57146100
    15  H          0.42973600       0.57476200       0.07146100
    16  H          0.57026400       0.07476200       0.42853900
    17  H          0.91273700       0.41647100       0.87735200
    18  H          0.08726300       0.91647100       0.62264800
    19  H          0.08726300       0.58352900       0.12264800
    20  H          0.91273700       0.08352900       0.37735200
    21  C          0.57451500       0.68132000       0.79915000
    22  C          0.42548500       0.18132000       0.70085000
    23  C          0.42548500       0.31868000       0.20085000
    24  C          0.57451500       0.81868000       0.29915000
    25  C          0.65911500       0.73972000       0.78555000
    26  C          0.34088500       0.23972000       0.71445000
    27  C          0.34088500       0.26028000       0.21445000
    28  C          0.65911500       0.76028000       0.28555000
    29  C          0.56941600       0.78203000       0.85636000
    30  C          0.43058400       0.28203000       0.64364000
    31  C          0.43058400       0.21797000       0.14364000
    32  C          0.56941600       0.71797000       0.35636000
    33  H          0.62306600       0.82110600       0.84485500
    34  H          0.37693400       0.32110600       0.65514500
    35  H          0.37693400       0.17889400       0.15514500
    36  H          0.62306600       0.67889400       0.34485500
    37  C          0.40651400       0.76753000       0.94116000
    38  C          0.59348600       0.26753000       0.55884000
    39  C          0.59348600       0.23247000       0.05884000
    40  C          0.40651400       0.73247000       0.44116000
    41  H          0.34864600       0.79622000      -0.01063100
    42  H          0.65135400       0.29622000       0.51063100
    43  H          0.65135400       0.20378000       0.01063100
    44  H          0.34864600       0.70378000       0.48936900
    45  C          0.32431500       0.70993000       0.95705000
    46  C          0.67568500       0.20993000       0.54295000
    47  C          0.67568500       0.29007000       0.04295000
    48  C          0.32431500       0.79007000       0.45705000
    49  H          0.21194000       0.69948700       0.01654800
    50  H          0.78806000       0.19948700       0.48345200
    51  H          0.78806000       0.30051300       0.98345200
    52  H          0.21194000       0.80051300       0.51654800
    53  C          0.40471400       0.66912000       0.88755000
    54  C          0.59528600       0.16912000       0.61245000
    55  C          0.59528600       0.33088000       0.11245000
    56  C          0.40471400       0.83088000       0.38755000
    57  H          0.34310200       0.63039200       0.89937700
    58  H          0.65689800       0.13039200       0.60062300
    59  H          0.65689800       0.36960800       0.10062300
    60  H          0.34310200       0.86960800       0.39937700
    61  C          0.59311500       0.58032000       0.74385000
    62  C          0.40688500       0.08032000       0.75615000
    63  C          0.40688500       0.41968000       0.25615000
    64  C          0.59311500       0.91968000       0.24385000
    65  C          0.41981600       0.54383000       0.67026000
    66  C          0.58018400       0.04383000       0.82974000
    67  C          0.58018400       0.45617000       0.32974000
    68  C          0.41981600       0.95617000       0.17026000
    69  C          0.43741600       0.48473000       0.70296000
    70  C          0.56258400       0.98473000       0.79704000
    71  C          0.56258400       0.51527000       0.29704000
    72  C          0.43741600       0.01527000       0.20296000
    73  H          0.33691200       0.45445600       0.65990700
    74  H          0.66308800       0.95445600       0.84009300
    75  H          0.66308800       0.54554400       0.34009300
    76  H          0.33691200       0.04554400       0.15990700
    77  C          0.60661700       0.47593000       0.79855000
    78  C          0.39338300       0.97593000       0.70145000
    79  C          0.39338300       0.52407000       0.20145000
    80  C          0.60661700       0.02407000       0.29855000
    81  N          0.64961300       0.63802000       0.73004000
    82  N          0.35038700       0.13802000       0.76996000
    83  N          0.35038700       0.36198000       0.26996000
    84  N          0.64961300       0.86198000       0.23004000
    85  H          0.74084200       0.64827800       0.67252200
    86  H          0.25915800       0.14827800       0.82747800
    87  H          0.25915800       0.35172200       0.32747800
    88  H          0.74084200       0.85172200       0.17252200
    89  N          0.83721200       0.75782000       0.69965000
    90  N          0.16278800       0.25782000       0.80035000
    91  N          0.16278800       0.24218000       0.30035000
    92  N          0.83721200       0.74218000       0.19965000
    93  N          0.08651600       0.58563000       0.50005000
    94  N          0.91348400       0.08563000      -0.00005000
    95  N          0.91348400       0.41437000       0.49995000
    96  N          0.08651600       0.91437000       0.00005000
    97  O          0.94821100       0.72143180       0.63884000
    98  O          0.05178900       0.22143180       0.86116000
    99  O          0.05178900       0.27856820       0.36116000
   100  O          0.94821100       0.77856820       0.13884000
   101  O          0.89111200       0.80933180       0.68754000
   102  O          0.10888800       0.30933180       0.81246000
   103  O          0.10888800       0.19066820       0.31246000
   104  O          0.89111200       0.69066820       0.18754000
   105  S          0.77084000       0.54053600       0.85257140
   106  S          0.22916000       0.04053600       0.64742860
   107  S          0.22916000       0.45946400       0.14742860
   108  S          0.77084000       0.95946400       0.35257140
