data_QAXMEH12
_symmetry_space_group_name_H-M    'P1'
_symmetry_Int_Tables_number       1
loop_
_symmetry_equiv_pos_site_id
_symmetry_equiv_pos_as_xyz
1 x,y,z
_cell_length_a                   8.23244
_cell_length_b                   11.81735
_cell_length_c                   12.31216
_cell_angle_alpha                90.0
_cell_angle_beta                 102.50501
_cell_angle_gamma                90.0
loop_
_atom_site_label
_atom_site_type_symbol
_atom_site_fract_x
_atom_site_fract_y
_atom_site_fract_z
     1  S          0.45890500       0.77421300       0.03516300
     2  S          0.04109500       0.27421300       0.46483700
     3  S          0.54109500       0.22578700       0.96483700
     4  S          0.95890500       0.72578700       0.53516300
     5  O          0.58182000       0.87986120       0.43263120
     6  O          0.91818000       0.37986120       0.06736880
     7  O          0.41818000       0.12013880       0.56736880
     8  O          0.08182000       0.62013880       0.93263120
     9  O          0.56312000       0.81456170       0.59103110
    10  O          0.93688000       0.31456170       0.90896890
    11  O          0.43688000       0.18543830       0.40896890
    12  O          0.06312000       0.68543830       0.09103110
    13  N          0.82552000       0.49172150       0.28278140
    14  N          0.67448000      -0.00827850       0.21721860
    15  N          0.17448000       0.50827850       0.71721860
    16  N          0.32552000       0.00827850       0.78278140
    17  N          0.53492190       0.74304110       0.25958110
    18  N          0.96507810       0.24304110       0.24041890
    19  N          0.46507810       0.25695890       0.74041890
    20  N          0.03492190       0.75695890       0.75958110
    21  H          0.57380000       0.80810000       0.28370000
    22  H          0.92620000       0.30810000       0.21630000
    23  H          0.42620000       0.19190000       0.71630000
    24  H          0.07380000       0.69190000       0.78370000
    25  N          0.53831180       0.80594140       0.48993120
    26  N          0.96168820       0.30594140       0.01006880
    27  N          0.46168820       0.19405860       0.51006880
    28  N          0.03831180       0.69405860      -0.01006880
    29  C          0.51882000       0.70542160       0.83015870
    30  C         -0.01882000       0.20542160       0.66984130
    31  C          0.48118000       0.29457840       0.16984130
    32  C          0.01882000       0.79457840       0.33015870
    33  H          0.58850000       0.65580000       0.79860000
    34  H          0.91150000       0.15580000       0.70140000
    35  H          0.41150000       0.34420000       0.20140000
    36  H          0.08850000       0.84420000       0.29860000
    37  H          0.54450000       0.78260000       0.81620000
    38  H          0.95550000       0.28260000       0.68380000
    39  H          0.45550000       0.21740000       0.18380000
    40  H          0.04450000       0.71740000       0.31620000
    41  H          0.40420000       0.69040000       0.79690000
    42  H          0.09580000       0.19040000       0.70310000
    43  H          0.59580000       0.30960000       0.20310000
    44  H          0.90420000       0.80960000       0.29690000
    45  C          0.54861190       0.68583140       0.95327880
    46  C          0.95138810       0.18583140       0.54672120
    47  C          0.45138810       0.31416860       0.04672120
    48  C          0.04861190       0.81416860       0.45327880
    49  C          0.64672000       0.60767130       0.01573120
    50  C          0.85328000       0.10767130       0.48426880
    51  C          0.35328000       0.39232870       0.98426880
    52  C          0.14672000       0.89232870       0.51573120
    53  H          0.70410000       0.55190000       0.98610000
    54  H          0.79590000       0.05190000       0.51390000
    55  H          0.29590000       0.44810000       0.01390000
    56  H          0.20410000       0.94810000       0.48610000
    57  C          0.65300190       0.61961120       0.13195120
    58  C          0.84699810       0.11961120       0.36804880
    59  C          0.34699810       0.38038880       0.86804880
    60  C          0.15300190       0.88038880       0.63195120
    61  C          0.74932000       0.54912140       0.21584140
    62  C          0.75068000       0.04912140       0.28415860
    63  C          0.25068000       0.45087860       0.78415860
    64  C          0.24932000       0.95087860       0.71584140
    65  C          0.55682000       0.70727120       0.15549120
    66  C          0.94318000       0.20727120       0.34450880
    67  C          0.44318000       0.29272880       0.84450880
    68  C          0.05682000       0.79272880       0.65549120
    69  C          0.45413180       0.67928130       0.32564120
    70  C          0.04586820       0.17928130       0.17435880
    71  C          0.54586820       0.32071870       0.67435880
    72  C          0.95413180       0.82071870       0.82564120
    73  C          0.45472190       0.70683130       0.43729130
    74  C          0.04527810       0.20683130       0.06270870
    75  C          0.54527810       0.29316870       0.56270870
    76  C          0.95472190       0.79316870       0.93729130
    77  C          0.37122000       0.63975150       0.50114130
    78  C          0.12878000       0.13975150      -0.00114130
    79  C          0.62878000       0.36024850       0.49885870
    80  C          0.87122000       0.86024850       0.00114130
    81  H          0.37470000       0.65910000       0.57480000
    82  H          0.12530000       0.15910000       0.92520000
    83  H          0.62530000       0.34090000       0.42520000
    84  H          0.87470000       0.84090000       0.07480000
    85  C          0.28512000       0.54671150       0.45695160
    86  C          0.21488000       0.04671150       0.04304840
    87  C          0.71488000       0.45328850       0.54304840
    88  C          0.78512000       0.95328850       0.95695160
    89  H          0.22870000       0.50290000       0.49950000
    90  H          0.27130000       0.00290000       0.00050000
    91  H          0.77130000       0.49710000       0.50050000
    92  H          0.72870000      -0.00290000      -0.00050000
    93  C          0.28252000       0.51779150       0.34715160
    94  C          0.21748000       0.01779150       0.15284840
    95  C          0.71748000       0.48220850       0.65284840
    96  C          0.78252000       0.98220850       0.84715160
    97  H          0.22360000       0.45420000       0.31630000
    98  H          0.27640000       0.95420000       0.18370000
    99  H          0.77640000       0.54580000       0.68370000
   100  H          0.72360000       0.04580000       0.81630000
   101  C          0.36562000       0.58183140       0.28349130
   102  C          0.13438000       0.08183140       0.21650870
   103  C          0.63438000       0.41816860       0.71650870
   104  C          0.86562000       0.91816860       0.78349130
   105  H          0.36310000       0.55990000       0.21060000
   106  H          0.13690000       0.05990000       0.28940000
   107  H          0.63690000       0.44010000       0.78940000
   108  H          0.86310000       0.94010000       0.71060000
