data_QAXMEH53
_symmetry_space_group_name_H-M    'P1'
_symmetry_Int_Tables_number       1
loop_
_symmetry_equiv_pos_site_id
_symmetry_equiv_pos_as_xyz
1 x,y,z
_cell_length_a                   6.971601
_cell_length_b                   8.272201
_cell_length_c                   10.370801
_cell_angle_alpha                97.56901
_cell_angle_beta                 103.23001
_cell_angle_gamma                90.05701
loop_
_atom_site_label
_atom_site_type_symbol
_atom_site_fract_x
_atom_site_fract_y
_atom_site_fract_z
     1  S          0.12476600       0.20091500       0.48197400
     2  S          0.87523400       0.79908500       0.51802600
     3  O          0.24252000       0.73621150       0.77450130
     4  O          0.75748000       0.26378850       0.22549870
     5  O          0.19612000       0.79743150       0.97299130
     6  O          0.80388000       0.20256850       0.02700870
     7  N          0.22892000       0.69646170       0.88349140
     8  N          0.77108000       0.30353830       0.11650860
     9  N          0.31002000       0.43667170       0.68496140
    10  N          0.68998000       0.56332830       0.31503860
    11  H          0.31407200       0.53692000       0.67162400
    12  H          0.68592800       0.46308000       0.32837600
    13  N          0.82682000       0.42772000       0.64269170
    14  N          0.17318000       0.57228000       0.35730830
    15  C          0.28942000       0.40509190       0.80789160
    16  C          0.71058000       0.59490810       0.19210840
    17  C          0.25272000       0.52832000       0.90676160
    18  C          0.74728000       0.47168000       0.09323840
    19  C          0.48952000       0.28372000       0.53152170
    20  C          0.51048000       0.71628000       0.46847830
    21  C          0.23972000       0.49362000       0.03267170
    22  C          0.76028000       0.50638000       0.96732830
    23  H          0.21626600       0.57706200       0.09605800
    24  H          0.78373400       0.42293800       0.90394200
    25  C          0.45403000       0.16602000       0.41416170
    26  C          0.54597000       0.83398000       0.58583830
    27  H          0.55077900       0.13162600       0.36903900
    28  H          0.44922100       0.86837400       0.63096100
    29  C          0.67592000       0.36442000       0.59308170
    30  C          0.32408000       0.63558000       0.40691830
    31  C          0.32493000       0.31612000       0.58026170
    32  C          0.67507000       0.68388000       0.41973830
    33  C          0.29533000       0.21412000       0.96746190
    34  C          0.70467000       0.78588000       0.03253810
    35  H          0.30870600       0.10779700      -0.01245600
    36  H          0.69129400       0.89220300       0.01245600
    37  C          0.30992000       0.24632000       0.84271180
    38  C          0.69008000       0.75368000       0.15728820
    39  H          0.33362000       0.16149500       0.78058200
    40  H          0.66638000       0.83850500       0.21941800
    41  C          0.26113000       0.33732000       0.06368180
    42  C          0.73887000       0.66268000       0.93631820
    43  H          0.25293200       0.31423400       0.14766300
    44  H          0.74706800       0.68576600       0.85233700
    45  C          0.26343000       0.10982000       0.37556170
    46  C          0.73657000       0.89018000       0.62443830
    47  C          0.17093000      -0.01242000       0.25821190
    48  C          0.82907000       0.01242000       0.74178810
    49  H          0.10343500       0.90333800       0.28765700
    50  H          0.89656500       0.09666200       0.71234300
    51  H          0.27143500       0.94036200       0.21682300
    52  H          0.72856500       0.05963800       0.78317700
    53  H          0.07860500       0.04053500       0.19479000
    54  H          0.92139500       0.95946500       0.80521000
