data_QAXMEH
_symmetry_space_group_name_H-M    'P1'
_symmetry_Int_Tables_number       1
loop_
_symmetry_equiv_pos_site_id
_symmetry_equiv_pos_as_xyz
1 x,y,z
_cell_length_a                   3.94537
_cell_length_b                   18.6851
_cell_length_c                   16.39484
_cell_angle_alpha                90.0
_cell_angle_beta                 93.8305
_cell_angle_gamma                90.0
loop_
_atom_site_label
_atom_site_type_symbol
_atom_site_fract_x
_atom_site_fract_y
_atom_site_fract_z
     1  S          0.35322000       0.59815400       0.92898400
     2  S          0.64678000       0.09815400       0.57101600
     3  S          0.64678000       0.40184600       0.07101600
     4  S          0.35322000       0.90184600       0.42898400
     5  O          0.09528000       0.68701000       0.63211000
     6  O          0.90472000       0.18701000       0.86789000
     7  O          0.90472000       0.31299000       0.36789000
     8  O          0.09528000       0.81299000       0.13211000
     9  O          0.00987000       0.61651000       0.53051000
    10  O         -0.00987000       0.11651000       0.96949000
    11  O         -0.00987000       0.38349000       0.46949000
    12  O          0.00987000       0.88349000       0.03051000
    13  N          0.39736000       0.64281000       0.76921000
    14  N          0.60264000       0.14281000       0.73079000
    15  N          0.60264000       0.35719000       0.23079000
    16  N          0.39736000       0.85719000       0.26921000
    17  N          0.13236000       0.62831000       0.59961000
    18  N          0.86764000       0.12831000       0.90039000
    19  N          0.86764000       0.37169000       0.40039000
    20  N          0.13236000       0.87169000       0.09961000
    21  N          0.90538000       0.80291000       0.78952000
    22  N          0.09462000       0.30291000       0.71048000
    23  N          0.09462000       0.19709000       0.21048000
    24  N          0.90538000       0.69709000       0.28952000
    25  C          0.78087000       0.76451000       0.83262000
    26  C          0.21913000       0.26451000       0.66738000
    27  C          0.21913000       0.23549000       0.16738000
    28  C          0.78087000       0.73549000       0.33262000
    29  C          0.48610000       0.63772000       0.09242000
    30  C          0.51390000       0.13772000       0.40758000
    31  C          0.51390000       0.36228000       0.90758000
    32  C          0.48610000       0.86228000       0.59242000
    33  C          0.44306000       0.58061000       0.72571000
    34  C          0.55694000       0.08061000       0.77429000
    35  C          0.55694000       0.41939000       0.27429000
    36  C          0.44306000       0.91939000       0.22571000
    37  C          0.31856000       0.57261000       0.64371000
    38  C          0.68144000       0.07261000       0.85629000
    39  C          0.68144000       0.42739000       0.35629000
    40  C          0.31856000       0.92739000       0.14371000
    41  C          0.36197000       0.50891000       0.60162000
    42  C          0.63803000       0.00891000       0.89838000
    43  C          0.63803000       0.49109000       0.39838000
    44  C          0.36197000       0.99109000       0.10162000
    45  C          0.53528000       0.45301000       0.63802000
    46  C          0.46472000       0.95301000       0.86198000
    47  C          0.46472000       0.54699000       0.36198000
    48  C          0.53528000       0.04699000       0.13802000
    49  C          0.66828000       0.46051000       0.71832000
    50  C          0.33172000       0.96051000       0.78168000
    51  C          0.33172000       0.53949000       0.28168000
    52  C          0.66828000       0.03949000       0.21832000
    53  C          0.62477000       0.52271000       0.76072000
    54  C          0.37523000       0.02271000       0.73928000
    55  C          0.37523000       0.47729000       0.23928000
    56  C          0.62477000       0.97729000       0.26072000
    57  C          0.48126000       0.65301000       0.85191000
    58  C          0.51874000       0.15301000       0.64809000
    59  C          0.51874000       0.34699000       0.14809000
    60  C          0.48126000       0.84699000       0.35191000
    61  C          0.63987000       0.71291000       0.88442000
    62  C          0.36013000       0.21291000       0.61558000
    63  C          0.36013000       0.28709000       0.11558000
    64  C          0.63987000       0.78709000       0.38442000
    65  C          0.65428000       0.71432000       0.97162000
    66  C          0.34572000       0.21432000       0.52838000
    67  C          0.34572000       0.28568000       0.02838000
    68  C          0.65428000       0.78568000       0.47162000
    69  C          0.51267000       0.65602000       0.00402000
    70  C          0.48733000       0.15602000       0.49598000
    71  C          0.48733000       0.34398000      -0.00402000
    72  C          0.51267000       0.84398000       0.50402000
    73  H          0.30580000       0.67620000       0.73920000
    74  H          0.69420000       0.17620000       0.76080000
    75  H          0.69420000       0.32380000       0.26080000
    76  H          0.30580000       0.82380000       0.23920000
    77  H          0.61992000       0.66905000       0.12734000
    78  H          0.38008000       0.16905000       0.37266000
    79  H          0.38008000       0.33095000       0.87266000
    80  H          0.61992000       0.83095000       0.62734000
    81  H          0.56277000       0.58939000       0.10347000
    82  H          0.43723000       0.08939000       0.39653000
    83  H          0.43723000       0.41061000       0.89653000
    84  H          0.56277000       0.91061000       0.60347000
    85  H          0.25451000       0.64058000       0.10716000
    86  H          0.74549000       0.14058000       0.39284000
    87  H          0.74549000       0.35942000       0.89284000
    88  H          0.25451000       0.85942000       0.60716000
    89  H          0.26812000       0.50458000       0.54625000
    90  H          0.73188000       0.00458000       0.95375000
    91  H          0.73188000       0.49542000       0.45375000
    92  H          0.26812000      -0.00458000       0.04625000
    93  H          0.56661000       0.40924000       0.60842000
    94  H          0.43339000       0.90924000       0.89158000
    95  H          0.43339000       0.59076000       0.39158000
    96  H          0.56661000       0.09076000       0.10842000
    97  H          0.79163000       0.42088000       0.74433000
    98  H          0.20837000       0.92088000       0.75567000
    99  H          0.20837000       0.57912000       0.25567000
   100  H          0.79163000       0.07912000       0.24433000
   101  H          0.71943000       0.52647000       0.81637000
   102  H          0.28057000       0.02647000       0.68363000
   103  H          0.28057000       0.47353000       0.18363000
   104  H          0.71943000       0.97353000       0.31637000
   105  H          0.75336000       0.75267000       0.00383000
   106  H          0.24664000       0.25267000       0.49617000
   107  H          0.24664000       0.24733000      -0.00383000
   108  H          0.75336000       0.74733000       0.50383000
