data_QAXMEH57
_symmetry_space_group_name_H-M    'P1'
_symmetry_Int_Tables_number       1
loop_
_symmetry_equiv_pos_site_id
_symmetry_equiv_pos_as_xyz
1 x,y,z
_cell_length_a                   8.23573
_cell_length_b                   11.62994
_cell_length_c                   12.71325
_cell_angle_alpha                89.3713
_cell_angle_beta                 73.1103
_cell_angle_gamma                87.3163
loop_
_atom_site_label
_atom_site_type_symbol
_atom_site_fract_x
_atom_site_fract_y
_atom_site_fract_z
     1  S          0.60753500       0.43205300       0.34339300
     2  S          0.39246500       0.56794700       0.65660700
     3  O          0.52465150       0.28791100       0.96133900
     4  O          0.47534850       0.71208900       0.03866100
     5  N          0.55021160       0.37016110       0.14571110
     6  N          0.44978840       0.62983890       0.85428890
     7  H          0.58920000       0.33231600       0.08711600
     8  H          0.41080000       0.66768400       0.91288400
     9  O          0.32514160       0.35155120       0.89504900
    10  O          0.67485840       0.64844880       0.10495100
    11  N          0.39489170       0.34921120       0.96819890
    12  N          0.60510830       0.65078880       0.03180110
    13  N          0.93532000       0.21134150       0.00193140
    14  N          0.06468000       0.78865850      -0.00193140
    15  C          0.39965190       0.42930130       0.15022130
    16  C          0.60034810       0.57069870       0.84977870
    17  C          0.32328190       0.42173130       0.06462130
    18  C          0.67671810       0.57826870       0.93537870
    19  C          0.17382000       0.48462140       0.06735140
    20  C          0.82618000       0.51537860       0.93264860
    21  H          0.12780000       0.47930000       0.00900000
    22  H          0.87220000       0.52070000      -0.00900000
    23  C          0.09380190       0.55429140       0.15518140
    24  C          0.90619810       0.44570860       0.84481860
    25  H         -0.00620000       0.59590000       0.15690000
    26  H          0.00620000       0.40410000       0.84310000
    27  C          0.16432000       0.56164140       0.24111140
    28  C          0.83568000       0.43835860       0.75888860
    29  H          0.11030000       0.60820000       0.30130000
    30  H          0.88970000       0.39180000       0.69870000
    31  C          0.31292000       0.50122140       0.23910130
    32  C          0.68708000       0.49877860       0.76089870
    33  H          0.35720000       0.50810000       0.29810000
    34  H          0.64280000       0.49190000       0.70190000
    35  C          0.65293190       0.37014130       0.21448130
    36  C          0.34706810       0.62985870       0.78551870
    37  C          0.81008190       0.31244130       0.18903130
    38  C          0.18991810       0.68755870       0.81096870
    39  C          0.89072000       0.31786140       0.27370140
    40  C          0.10928000       0.68213860       0.72629860
    41  H         -0.00340000       0.28280000       0.26850000
    42  H          0.00340000       0.71720000       0.73150000
    43  C          0.79832000       0.37894130       0.36214140
    44  C          0.20168000       0.62105870       0.63785860
    45  C          0.88142000       0.25514150       0.08623150
    46  C          0.11858000       0.74485850       0.91376850
    47  C          0.84052000       0.40528150       0.46558150
    48  C          0.15948000       0.59471850       0.53441850
    49  H          0.83860000       0.48720000       0.47490000
    50  H          0.16140000       0.51280000       0.52510000
    51  H          0.95170000       0.37300000       0.46130000
    52  H          0.04830000       0.62700000       0.53870000
    53  H          0.75850000       0.37260000       0.52700000
    54  H          0.24150000       0.62740000       0.47300000
    55  S          0.77322500       0.08852300       0.51291300
    56  S          0.22677500       0.91147700       0.48708700
    57  O          0.27582150       0.20936110       0.33154110
    58  O          0.72417850       0.79063890       0.66845890
    59  N          0.52679170       0.14024120       0.40576110
    60  N          0.47320830       0.85975880       0.59423890
    61  H          0.43820000       0.17651600       0.40941600
    62  H          0.56180000       0.82348400       0.59058400
    63  O          0.27014160       0.15941110       0.17010110
    64  O          0.72985840       0.84058890       0.82989890
    65  N          0.34016170       0.15704120       0.24357120
    66  N          0.65983830       0.84295880       0.75642880
    67  N          0.19978190       0.29774130       0.60124140
    68  N          0.80021810       0.70225870       0.39875860
    69  C          0.58840190       0.08438130       0.30694130
    70  C          0.41159810       0.91561870       0.69305870
    71  C          0.49992000       0.09184130       0.22658140
    72  C          0.50008000       0.90815870       0.77341860
    73  C          0.56162000       0.03533160       0.12604160
    74  C          0.43838000       0.96466840       0.87395840
    75  H          0.50180000       0.04280000       0.07440000
    76  H          0.49820000       0.95720000       0.92560000
    77  C          0.70912000       0.96901840       0.10233150
    78  C          0.29088000       0.03098160       0.89766850
    79  H          0.74880000       0.93030000       0.03550000
    80  H          0.25120000       0.06970000       0.96450000
    81  C          0.79852000       0.96027850       0.17909150
    82  C          0.20148000       0.03972150       0.82090850
    83  H          0.89920000       0.91550000       0.16330000
    84  H          0.10080000       0.08450000       0.83670000
    85  C          0.74082000       0.01678140       0.27839140
    86  C          0.25918000       0.98321860       0.72160860
    87  H          0.80440000       0.01010000       0.32800000
    88  H          0.19560000      -0.01010000       0.67200000
    89  C          0.58453190       0.14605130       0.49666130
    90  C          0.41546810       0.85394870       0.50333870
    91  C          0.49307190       0.20358130       0.59150130
    92  C          0.50692810       0.79641870       0.40849870
    93  C          0.57432000       0.19994140       0.67600140
    94  C          0.42568000       0.80005860       0.32399860
    95  H          0.52770000       0.23460000       0.74440000
    96  H          0.47230000       0.76540000       0.25560000
    97  C          0.72642000       0.14095140       0.64706140
    98  C          0.27358000       0.85904860       0.35293860
    99  C          0.33032000       0.25725140       0.59962140
   100  C          0.66968000       0.74274860       0.40037860
   101  C          0.84762000       0.11796160       0.71282160
   102  C          0.15238000       0.88203840       0.28717840
   103  H          0.86930000       0.03640000       0.71680000
   104  H          0.13070000       0.96360000       0.28320000
   105  H          0.79940000       0.14850000       0.78560000
   106  H          0.20060000       0.85150000       0.21440000
   107  H          0.95220000       0.15410000       0.67830000
   108  H          0.04780000       0.84590000       0.32170000
