data_QAXMEH05
_symmetry_space_group_name_H-M    'P1'
_symmetry_Int_Tables_number       1
loop_
_symmetry_equiv_pos_site_id
_symmetry_equiv_pos_as_xyz
1 x,y,z
_cell_length_a                   13.1773
_cell_length_b                   8.020918
_cell_length_c                   22.8015
_cell_angle_alpha                90.0
_cell_angle_beta                 90.0
_cell_angle_gamma                90.0
loop_
_atom_site_label
_atom_site_type_symbol
_atom_site_fract_x
_atom_site_fract_y
_atom_site_fract_z
     1  S          0.69311000       0.05411000       0.52801000
     2  S          0.80689000       0.94589000       0.02801000
     3  S          0.19311000       0.44589000       0.47199000
     4  S          0.30689000       0.55411000       0.97199000
     5  S          0.30689000       0.94589000       0.47199000
     6  S          0.19311000       0.05411000       0.97199000
     7  S          0.80689000       0.55411000       0.52801000
     8  S          0.69311000       0.44589000       0.02801000
     9  N          0.63412000       0.84246000       0.75511000
    10  N          0.86588000       0.15754000       0.25511000
    11  N          0.13412000       0.65754000       0.24489000
    12  N          0.36588000       0.34246000       0.74489000
    13  N          0.36588000       0.15754000       0.24489000
    14  N          0.13412000       0.84246000       0.74489000
    15  N          0.86588000       0.34246000       0.75511000
    16  N          0.63412000       0.65754000       0.25511000
    17  O          0.64462000       0.82777000       0.80831000
    18  O          0.85538000       0.17223000       0.30831000
    19  O          0.14462000       0.67223000       0.19169000
    20  O          0.35538000       0.32777000       0.69169000
    21  O          0.35538000       0.17223000       0.19169000
    22  O          0.14462000       0.82777000       0.69169000
    23  O          0.85538000       0.32777000       0.80831000
    24  O          0.64462000       0.67223000       0.30831000
    25  O          0.62902000       0.71977000       0.72231000
    26  O          0.87098000       0.28023000       0.22231000
    27  O          0.12902000       0.78023000       0.27769000
    28  O          0.37098000       0.21977000       0.77769000
    29  O          0.37098000       0.28023000       0.27769000
    30  O          0.12902000       0.71977000       0.77769000
    31  O          0.87098000       0.21977000       0.72231000
    32  O          0.62902000       0.78023000       0.22231000
    33  N          0.62153000       0.90796000       0.62931000
    34  N          0.87847000       0.09204000       0.12931000
    35  N          0.12153000       0.59204000       0.37069000
    36  N          0.37847000       0.40796000       0.87069000
    37  N          0.37847000       0.09204000       0.37069000
    38  N          0.12153000       0.90796000       0.87069000
    39  N          0.87847000       0.40796000       0.62931000
    40  N          0.62153000       0.59204000       0.12931000
    41  C          0.62722000       0.00944000       0.73031000
    42  C          0.87278000      -0.00944000       0.23031000
    43  C          0.12722000       0.49056000       0.26969000
    44  C          0.37278000       0.50944000       0.76969000
    45  C          0.37278000      -0.00944000       0.26969000
    46  C          0.12722000       0.00944000       0.76969000
    47  C          0.87278000       0.50944000       0.73031000
    48  C          0.62722000       0.49056000       0.23031000
    49  C          0.62603000       0.14005000       0.76982000
    50  C          0.87397000       0.85995000       0.26982000
    51  C          0.12603000       0.35995000       0.23018000
    52  C          0.37397000       0.64005000       0.73018000
    53  C          0.37397000       0.85995000       0.23018000
    54  C          0.12603000       0.14005000       0.73018000
    55  C          0.87397000       0.64005000       0.76982000
    56  C          0.62603000       0.35995000       0.26982000
    57  C          0.62042000       0.03574000       0.66921000
    58  C          0.87958000       0.96426000       0.16921000
    59  C          0.12042000       0.46426000       0.33079000
    60  C          0.37958000       0.53574000       0.83079000
    61  C          0.37958000       0.96426000       0.33079000
    62  C          0.12042000       0.03574000       0.83079000
    63  C          0.87958000       0.53574000       0.66921000
    64  C          0.62042000       0.46426000       0.16921000
    65  C          0.57992000       0.79666000       0.53311000
    66  C          0.92008000       0.20334000       0.03311000
    67  C          0.07992000       0.70334000       0.46689000
    68  C          0.42008000       0.29666000       0.96689000
    69  C          0.42008000       0.20334000       0.46689000
    70  C          0.07992000       0.79666000       0.96689000
    71  C          0.92008000       0.29666000       0.53311000
    72  C          0.57992000       0.70334000       0.03311000
    73  C          0.61883000       0.30026000       0.74992000
    74  C          0.88117000       0.69974000       0.24992000
    75  C          0.11883000       0.19974000       0.25008000
    76  C          0.38117000       0.80026000       0.75008000
    77  C          0.38117000       0.69974000       0.25008000
    78  C          0.11883000       0.30026000       0.75008000
    79  C          0.88117000       0.80026000       0.74992000
    80  C          0.61883000       0.19974000       0.24992000
    81  C          0.61123000       0.32906000       0.69092000
    82  C          0.88877000       0.67094000       0.19092000
    83  C          0.11123000       0.17094000       0.30908000
    84  C          0.38877000       0.82906000       0.80908000
    85  C          0.38877000       0.67094000       0.30908000
    86  C          0.11123000       0.32906000       0.80908000
    87  C          0.88877000       0.82906000       0.69092000
    88  C          0.61123000       0.17094000       0.19092000
    89  C          0.62353000       0.91406000       0.56861000
    90  C          0.87647000       0.08594000       0.06861000
    91  C          0.12353000       0.58594000       0.43139000
    92  C          0.37647000       0.41406000       0.93139000
    93  C          0.37647000       0.08594000       0.43139000
    94  C          0.12353000       0.91406000       0.93139000
    95  C          0.87647000       0.41406000       0.56861000
    96  C          0.62353000       0.58594000       0.06861000
    97  C          0.69655000       0.03007000       0.40642000
    98  C          0.80345000       0.96993000       0.90642000
    99  C          0.19655000       0.46993000       0.59358000
   100  C          0.30345000       0.53007000       0.09358000
   101  C          0.30345000       0.96993000       0.59358000
   102  C          0.19655000       0.03007000       0.09358000
   103  C          0.80345000       0.53007000       0.40642000
   104  C          0.69655000       0.46993000       0.90642000
   105  N          0.47553000       0.56085000       0.57722000
   106  N          0.02447000       0.43915000       0.07722000
   107  N          0.97553000       0.93915000       0.42278000
   108  N          0.52447000       0.06085000       0.92278000
   109  N          0.52447000       0.43915000       0.42278000
   110  N          0.97553000       0.56085000       0.92278000
   111  N          0.02447000       0.06085000       0.57722000
   112  N          0.47553000       0.93915000       0.07722000
   113  C          0.60273000       0.82285000       0.47252000
   114  C          0.89727000       0.17715000       0.97252000
   115  C          0.10273000       0.67715000       0.52748000
   116  C          0.39727000       0.32285000       0.02748000
   117  C          0.39727000       0.17715000       0.52748000
   118  C          0.10273000       0.82285000       0.02748000
   119  C          0.89727000       0.32285000       0.47252000
   120  C          0.60273000       0.67715000       0.97252000
   121  C          0.66123000       0.95615000       0.46291000
   122  C          0.83877000       0.04385000       0.96291000
   123  C          0.16123000       0.54385000       0.53709000
   124  C          0.33877000       0.45615000       0.03709000
   125  C          0.33877000       0.04385000       0.53709000
   126  C          0.16123000       0.95615000       0.03709000
   127  C          0.83877000       0.45615000       0.46291000
   128  C          0.66123000       0.54385000       0.96291000
   129  C          0.61133000       0.20165000       0.65092000
   130  C          0.88867000       0.79835000       0.15092000
   131  C          0.11133000       0.29835000       0.34908000
   132  C          0.38867000       0.70165000       0.84908000
   133  C          0.38867000       0.79835000       0.34908000
   134  C          0.11133000       0.20165000       0.84908000
   135  C          0.88867000       0.70165000       0.65092000
   136  C          0.61133000       0.29835000       0.15092000
   137  C          0.52073000       0.66545000       0.55652000
   138  C          0.97927000       0.33455000       0.05652000
   139  C          0.02073000       0.83455000       0.44348000
   140  C          0.47927000       0.16545000       0.94348000
   141  C          0.47927000       0.33455000       0.44348000
   142  C          0.02073000       0.66545000       0.94348000
   143  C          0.97927000       0.16545000       0.55652000
   144  C          0.52073000       0.83455000       0.05652000
   145  H          0.61602000       0.38604000       0.77871200
   146  H          0.88398000       0.61396000       0.27871200
   147  H          0.11602000       0.11396000       0.22128800
   148  H          0.38398000       0.88604000       0.72128800
   149  H          0.38398000       0.61396000       0.22128800
   150  H          0.11602000       0.38604000       0.72128800
   151  H          0.88398000       0.88604000       0.77871200
   152  H          0.61602000       0.11396000       0.27871200
   153  H          0.60502000       0.22204000       0.60721300
   154  H          0.89498000       0.77796000       0.10721300
   155  H          0.10502000       0.27796000       0.39278700
   156  H          0.39498000       0.72204000       0.89278700
   157  H          0.39498000       0.77796000       0.39278700
   158  H          0.10502000       0.22204000       0.89278700
   159  H          0.89498000       0.72204000       0.60721300
   160  H          0.60502000       0.27796000       0.10721300
   161  H          0.67802000       0.96496000       0.37541500
   162  H          0.82198000       0.03504000       0.87541500
   163  H          0.17802000       0.53504000       0.62458500
   164  H          0.32198000       0.46496000       0.12458500
   165  H          0.32198000       0.03504000       0.62458500
   166  H          0.17802000       0.96496000       0.12458500
   167  H          0.82198000       0.46496000       0.37541500
   168  H          0.67802000       0.53504000       0.87541500
   169  H          0.60403000       0.43805000       0.67771400
   170  H          0.89597000       0.56195000       0.17771400
   171  H          0.10403000       0.06195000       0.32228600
   172  H          0.39597000       0.93805000       0.82228600
   173  H          0.39597000       0.56195000       0.32228600
   174  H          0.10403000       0.43805000       0.82228600
   175  H          0.89597000       0.93805000       0.67771400
   176  H          0.60403000       0.06195000       0.17771400
   177  H          0.63903000       0.11105000       0.81261600
   178  H          0.86097000       0.88895000       0.31261600
   179  H          0.13903000       0.38895000       0.18738400
   180  H          0.36097000       0.61105000       0.68738400
   181  H          0.36097000       0.88895000       0.18738400
   182  H          0.13903000       0.11105000       0.68738400
   183  H          0.86097000       0.61105000       0.81261600
   184  H          0.63903000       0.38895000       0.31261600
   185  H          0.57402000       0.74596000       0.44311100
   186  H          0.92598000       0.25404000       0.94311100
   187  H          0.07402000       0.75404000       0.55688900
   188  H          0.42598000       0.24596000       0.05688900
   189  H          0.42598000       0.25404000       0.55688900
   190  H          0.07402000       0.74596000       0.05688900
   191  H          0.92598000       0.24596000       0.44311100
   192  H          0.57402000       0.75404000       0.94311100
   193  H          0.77304000       0.01905000       0.40251700
   194  H          0.72696000       0.98095000       0.90251700
   195  H          0.27304000       0.48095000       0.59748300
   196  H          0.22696000       0.51905000       0.09748300
   197  H          0.22696000       0.98095000       0.59748300
   198  H          0.27304000       0.01905000       0.09748300
   199  H          0.72696000       0.51905000       0.40251700
   200  H          0.77304000       0.48095000       0.90251700
   201  H          0.67705000       0.14709000       0.40302000
   202  H          0.82295000       0.85291000       0.90302000
   203  H          0.17705000       0.35291000       0.59698000
   204  H          0.32295000       0.64709000       0.09698000
   205  H          0.32295000       0.85291000       0.59698000
   206  H          0.17705000       0.14709000       0.09698000
   207  H          0.82295000       0.64709000       0.40302000
   208  H          0.67705000       0.35291000       0.90302000
   209  H          0.62502000       0.81796000       0.64401200
   210  H          0.87498000       0.18204000       0.14401200
   211  H          0.12502000       0.68204000       0.35598800
   212  H          0.37498000       0.31796000       0.85598800
   213  H          0.37498000       0.18204000       0.35598800
   214  H          0.12502000       0.81796000       0.85598800
   215  H          0.87498000       0.31796000       0.64401200
   216  H          0.62502000       0.68204000       0.14401200
