data_QAXMEH02
_symmetry_space_group_name_H-M    'P1'
_symmetry_Int_Tables_number       1
loop_
_symmetry_equiv_pos_site_id
_symmetry_equiv_pos_as_xyz
1 x,y,z
_cell_length_a                   7.49185
_cell_length_b                   7.79025
_cell_length_c                   11.91108
_cell_angle_alpha                75.4946
_cell_angle_beta                 77.8066
_cell_angle_gamma                63.6176
loop_
_atom_site_label
_atom_site_type_symbol
_atom_site_fract_x
_atom_site_fract_y
_atom_site_fract_z
     1  S          0.39377700       0.25705600       0.65061400
     2  S          0.60622300       0.74294400       0.34938600
     3  O          0.11472000       0.61133190       0.00515120
     4  O          0.88528000       0.38866810      -0.00515120
     5  O          0.15522000       0.40203000       0.16490130
     6  O          0.84478000       0.59797000       0.83509870
     7  N          0.32572000       0.48592000       0.81233130
     8  N          0.67428000       0.51408000       0.18766870
     9  N          0.21382000       0.45402000       0.06374130
    10  N          0.78618000       0.54598000       0.93625870
    11  N          0.06434000       0.97783000       0.65694190
    12  N          0.93566000       0.02217000       0.34305810
    13  C          0.13153000       0.82253000       0.63849170
    14  C          0.86847000       0.17747000       0.36150830
    15  C          0.32603000       0.26553000       0.42661180
    16  C          0.67397000       0.73447000       0.57338820
    17  C          0.45372000       0.34392000       0.88954140
    18  C          0.54628000       0.65608000       0.11045860
    19  C          0.40352000       0.32492000       0.01138150
    20  C          0.59648000       0.67508000      -0.01138150
    21  C          0.53203000       0.17503000       0.08777160
    22  C          0.46797000       0.82497000       0.91222840
    23  C          0.71283000       0.04443000       0.04480180
    24  C          0.28717000       0.95557000       0.95519820
    25  C          0.76783000       0.06393000       0.92567180
    26  C          0.23217000       0.93607000       0.07432820
    27  C          0.64233000       0.21062000       0.84979160
    28  C          0.35767000       0.78938000       0.15020840
    29  C          0.31382000       0.47192000       0.70060150
    30  C          0.68618000       0.52808000       0.29939850
    31  C          0.21672000       0.62772000       0.61824150
    32  C          0.78328000       0.37228000       0.38175850
    33  C          0.20803000       0.57163000       0.51479160
    34  C          0.79197000       0.42837000       0.48520840
    35  C          0.29823000       0.37813000       0.51850150
    36  C          0.70177000       0.62187000       0.48149850
    37  H          0.22230000       0.57430000       0.84411700
    38  H          0.77770000       0.42570000       0.15588300
    39  H          0.27300000       0.16900000       0.45800000
    40  H          0.72700000       0.83100000       0.54200000
    41  H          0.49200000       0.16400000       0.17100000
    42  H          0.50800000       0.83600000       0.82900000
    43  H          0.80000000       0.94100000       0.09700000
    44  H          0.20000000       0.05900000       0.90300000
    45  H          0.89500000       0.97300000       0.89600000
    46  H          0.10500000       0.02700000       0.10400000
    47  H          0.68700000       0.22300000       0.76700000
    48  H          0.31300000       0.77700000       0.23300000
    49  H          0.14400000       0.66300000       0.44900000
    50  H          0.85600000       0.33700000       0.55100000
    51  H          0.46600000       0.19800000       0.40200000
    52  H          0.53400000       0.80200000       0.59800000
    53  H          0.26100000       0.34900000       0.36100000
    54  H          0.73900000       0.65100000       0.63900000
