data_QAXMEH65
_symmetry_space_group_name_H-M    'P1'
_symmetry_Int_Tables_number       1
loop_
_symmetry_equiv_pos_site_id
_symmetry_equiv_pos_as_xyz
1 x,y,z
_cell_length_a                   3.63120017
_cell_length_b                   17.688604
_cell_length_c                   16.026105
_cell_angle_alpha                90.0
_cell_angle_beta                 89.6485
_cell_angle_gamma                90.0
loop_
_atom_site_label
_atom_site_type_symbol
_atom_site_fract_x
_atom_site_fract_y
_atom_site_fract_z
     1  S          0.70434000       0.58954110       0.43423110
     2  S          0.29566000       0.08954110       0.06576890
     3  S          0.29566000       0.41045890       0.56576890
     4  S          0.70434000       0.91045890       0.93423110
     5  O          0.47131200       0.63153000       0.02384000
     6  O          0.52868800       0.13153000       0.47616000
     7  O          0.52868800       0.36847000       0.97616000
     8  O          0.47131200       0.86847000       0.52384000
     9  O          0.48821100       0.69913000       0.13784000
    10  O          0.51178900       0.19913000       0.36216000
    11  O          0.51178900       0.30087000       0.86216000
    12  O          0.48821100       0.80087000       0.63784000
    13  C          0.85441500       0.58394000       0.22295000
    14  C          0.14558500       0.08394000       0.27705000
    15  C          0.14558500       0.41606000       0.77705000
    16  C          0.85441500       0.91606000       0.72295000
    17  C          0.03921600       0.52084000       0.25756000
    18  C          0.96078400       0.02084000       0.24244000
    19  C          0.96078400       0.47916000       0.74244000
    20  C          0.03921600       0.97916000       0.75756000
    21  C          0.11351500       0.46034000       0.20835000
    22  C          0.88648500       0.96034000       0.29165000
    23  C          0.88648500       0.53966000       0.79165000
    24  C          0.11351500       0.03966000       0.70835000
    25  C          0.00571400       0.45634000       0.12585000
    26  C         -0.00571400       0.95634000       0.37415000
    27  C         -0.00571400       0.54366000       0.87415000
    28  C          0.00571400       0.04366000       0.62585000
    29  C          0.82491600       0.51714000       0.08885000
    30  C          0.17508400       0.01714000       0.41115000
    31  C          0.17508400       0.48286000       0.91115000
    32  C          0.82491600       0.98286000       0.58885000
    33  C          0.75211500       0.57924000       0.14075000
    34  C          0.24788500       0.07924000       0.35925000
    35  C          0.24788500       0.42076000       0.85925000
    36  C          0.75211500       0.92076000       0.64075000
    37  C          0.84211600       0.65284000       0.35915000
    38  C          0.15788400       0.15284000       0.14085000
    39  C          0.15788400       0.34716000       0.64085000
    40  C          0.84211600       0.84716000       0.85915000
    41  C          0.00321400       0.71484000       0.39385000
    42  C         -0.00321400       0.21484000       0.10615000
    43  C         -0.00321400       0.28516000       0.60615000
    44  C          0.00321400       0.78516000       0.89385000
    45  C          0.00801500       0.71254000       0.48175000
    46  C         -0.00801500       0.21254000       0.01825000
    47  C         -0.00801500       0.28746000       0.51825000
    48  C          0.00801500       0.78746000       0.98175000
    49  C          0.85291100       0.64923000       0.51365000
    50  C          0.14708900       0.14923000       0.98635000
    51  C          0.14708900       0.35077000       0.48635000
    52  C          0.85291100       0.85077000       0.01365000
    53  C          0.80981100       0.62303000       0.60244000
    54  C          0.19018900       0.12303000       0.89756000
    55  C          0.19018900       0.37697000       0.39756000
    56  C          0.80981100       0.87697000       0.10244000
    57  C          0.18021500       0.76915000       0.34184000
    58  C          0.81978500       0.26915000       0.15816000
    59  C          0.81978500       0.23085000       0.65816000
    60  C          0.18021500       0.73085000       0.84184000
    61  N          0.78251400       0.64354000       0.27374000
    62  N          0.21748600       0.14354000       0.22626000
    63  N          0.21748600       0.35646000       0.72626000
    64  N          0.78251400       0.85646000       0.77374000
    65  N          0.32301400       0.80643000       0.29424000
    66  N          0.67698600       0.30643000       0.20576000
    67  N          0.67698600       0.19357000       0.70576000
    68  N          0.32301400       0.69357000       0.79424000
    69  N          0.55981400       0.64044000       0.09655000
    70  N          0.44018600       0.14044000       0.40345000
    71  N          0.44018600       0.35956000       0.90345000
    72  N          0.55981400       0.85956000       0.59655000
    73  H          0.65880000       0.67820000       0.25130000
    74  H          0.34120000       0.17820000       0.24870000
    75  H          0.34120000       0.32180000       0.74870000
    76  H          0.65880000       0.82180000       0.75130000
    77  H          0.10960000       0.52060000       0.31290000
    78  H          0.89040000       0.02060000       0.18710000
    79  H          0.89040000       0.47940000       0.68710000
    80  H          0.10960000       0.97940000       0.81290000
    81  H          0.24290000       0.41960000       0.23050000
    82  H          0.75710000       0.91960000       0.26950000
    83  H          0.75710000       0.58040000       0.76950000
    84  H          0.24290000       0.08040000       0.73050000
    85  H          0.05400000       0.41310000       0.09430000
    86  H          0.94600000       0.91310000       0.40570000
    87  H          0.94600000       0.58690000       0.90570000
    88  H          0.05400000       0.08690000       0.59430000
    89  H          0.75620000       0.51600000       0.03300000
    90  H          0.24380000       0.01600000       0.46700000
    91  H          0.24380000       0.48400000       0.96700000
    92  H          0.75620000       0.98400000       0.53300000
    93  H          0.10910000       0.75040000       0.51460000
    94  H          0.89090000       0.25040000       0.98540000
    95  H          0.89090000       0.24960000       0.48540000
    96  H          0.10910000       0.74960000       0.01460000
    97  H         -0.00810000       0.58510000       0.61380000
    98  H          0.00810000       0.08510000       0.88620000
    99  H          0.00810000       0.41490000       0.38620000
   100  H         -0.00810000       0.91490000       0.11380000
   101  H          0.84180000       0.66550000       0.63920000
   102  H          0.15820000       0.16550000       0.86080000
   103  H          0.15820000       0.33450000       0.36080000
   104  H          0.84180000       0.83450000       0.13920000
   105  H          0.56800000       0.60230000       0.61000000
   106  H          0.43200000       0.10230000       0.89000000
   107  H          0.43200000       0.39770000       0.39000000
   108  H          0.56800000       0.89770000       0.11000000
