data_QAXMEH04
_symmetry_space_group_name_H-M    'P1'
_symmetry_Int_Tables_number       1
loop_
_symmetry_equiv_pos_site_id
_symmetry_equiv_pos_as_xyz
1 x,y,z
_cell_length_a                   4.59188
_cell_length_b                   11.2492
_cell_length_c                   12.3152
_cell_angle_alpha                71.1943
_cell_angle_beta                 89.8524
_cell_angle_gamma                88.1743
loop_
_atom_site_label
_atom_site_type_symbol
_atom_site_fract_x
_atom_site_fract_y
_atom_site_fract_z
     1  S          0.42952000       0.23421000       0.12151000
     2  S          0.57048000       0.76579000       0.87849000
     3  N          0.96445000       0.64822000       0.11772000
     4  N          0.03555000       0.35178000       0.88228000
     5  O          0.07184000       0.57662000       0.07012000
     6  O          0.92816000       0.42338000       0.92988000
     7  N          0.76176000       0.39022000       0.19322000
     8  N          0.23824000       0.60978000       0.80678000
     9  C          0.65885000       0.47803000       0.23952000
    10  C          0.34115000       0.52197000       0.76048000
    11  C          0.44656000       0.44683000       0.32572000
    12  C          0.55344000       0.55317000       0.67428000
    13  C          0.75546000       0.60133000       0.20832000
    14  C          0.24454000       0.39867000       0.79168000
    15  O          0.02565000       0.75912000       0.08972000
    16  O         -0.02565000       0.24088000       0.91028000
    17  C          0.65106000       0.26973000       0.21822000
    18  C          0.34894000       0.73027000       0.78178000
    19  C          0.65087000       0.68513000       0.26153000
    20  C          0.34913000       0.31487000       0.73847000
    21  C          0.53536000       0.06230000       0.31063000
    22  C          0.46464000       0.93770000       0.68937000
    23  C          0.38856000       0.08253000       0.21143000
    24  C          0.61144000       0.91747000       0.78857000
    25  C          0.34466000       0.53164000       0.37573000
    26  C          0.65534000       0.46836000       0.62427000
    27  C          0.44777000       0.65203000       0.34443000
    28  C          0.55223000       0.34797000       0.65557000
    29  C          0.86077000       0.17343000       0.40963000
    30  C          0.13923000       0.82657000       0.59037000
    31  N         -0.00433000       0.17973000       0.48503000
    32  N          0.00433000       0.82027000       0.51497000
    33  C          0.20987000      -0.00643000       0.17373000
    34  C          0.79013000       0.00643000       0.82627000
    35  C          0.68866000       0.16943000       0.31483000
    36  C          0.31134000       0.83057000       0.68517000
    37  H          0.37386000       0.36643000       0.34922000
    38  H          0.62614000       0.63357000       0.65078000
    39  H          0.72197000       0.76583000       0.23973000
    40  H          0.27803000       0.23417000       0.76027000
    41  H          0.53686000       0.98647000       0.37033000
    42  H          0.46314000       0.01353000       0.62967000
    43  H          0.20286000       0.50804000       0.43203000
    44  H          0.79714000       0.49196000       0.56797000
    45  H          0.37867000       0.70893000       0.37973000
    46  H          0.62133000       0.29107000       0.62027000
    47  H          0.13177000       0.03583000       0.09843000
    48  H          0.86823000       0.96417000       0.90157000
    49  H          0.05307000       0.96507000       0.22643000
    50  H          0.94693000       0.03493000       0.77357000
    51  H          0.33037000       0.92277000       0.17213000
    52  H          0.66963000       0.07723000       0.82787000
    53  H          0.85875500       0.41572500       0.13772300
    54  H          0.14124500       0.58427500       0.86227700
