data_QAXMEH01
_symmetry_space_group_name_H-M    'P1'
_symmetry_Int_Tables_number       1
loop_
_symmetry_equiv_pos_site_id
_symmetry_equiv_pos_as_xyz
1 x,y,z
_cell_length_a                   8.50018
_cell_length_b                   16.4132
_cell_length_c                   8.53715
_cell_angle_alpha                90.0
_cell_angle_beta                 91.7677
_cell_angle_gamma                90.0
loop_
_atom_site_label
_atom_site_type_symbol
_atom_site_fract_x
_atom_site_fract_y
_atom_site_fract_z
     1  S          0.11894600       0.61449300       0.29292600
     2  S          0.38105400       0.11449300       0.20707400
     3  S          0.88105400       0.38550700       0.70707400
     4  S          0.61894600       0.88550700       0.79292600
     5  O          0.43777190       0.68318100       0.84972830
     6  O          0.06222810       0.18318100       0.65027170
     7  O          0.56222810       0.31681900       0.15027170
     8  O          0.93777190       0.81681900       0.34972830
     9  O          0.62482000       0.62476140       0.73298000
    10  O          0.87518000       0.12476140       0.76702000
    11  O          0.37518000       0.37523860       0.26702000
    12  O          0.12482000       0.87523860       0.23298000
    13  N          0.38831180       0.65640100       0.14729180
    14  N          0.11168820       0.15640100       0.35270820
    15  N          0.61168820       0.34359900       0.85270820
    16  N          0.88831180       0.84359900       0.64729180
    17  N          0.55142000       0.63790110       0.85168000
    18  N          0.94858000       0.13790110       0.64832000
    19  N          0.44858000       0.36209890       0.14832000
    20  N          0.05142000       0.86209890       0.35168000
    21  N          0.59512000       0.78134140       0.45322000
    22  N          0.90488000       0.28134140       0.04678000
    23  N          0.40488000       0.21865860       0.54678000
    24  N          0.09512000       0.71865860       0.95322000
    25  C          0.48033000       0.74542130       0.44112000
    26  C          0.01967000       0.24542130       0.05888000
    27  C          0.51967000       0.25457870       0.55888000
    28  C          0.98033000       0.75457870       0.94112000
    29  C          0.94597000       0.62860140       0.56433000
    30  C          0.55403000       0.12860140       0.93567000
    31  C          0.05403000       0.37139860       0.43567000
    32  C          0.44597000       0.87139860       0.06433000
    33  C          0.51862000       0.60709110       0.13602000
    34  C          0.98138000       0.10709110       0.36398000
    35  C          0.48138000       0.39290890       0.86398000
    36  C          0.01862000       0.89290890       0.63602000
    37  C          0.60112000       0.59754120      -0.00462000
    38  C          0.89888000       0.09754120       0.50462000
    39  C          0.39888000       0.40245880       0.00462000
    40  C          0.10112000       0.90245880       0.49538000
    41  C          0.73072000       0.54656140      -0.01213000
    42  C          0.76928000       0.04656140       0.51213000
    43  C          0.26928000       0.45343860       0.01213000
    44  C          0.23072000       0.95343860       0.48787000
    45  C          0.78193000       0.50358150       0.11554000
    46  C          0.71807000       0.00358150       0.38446000
    47  C          0.21807000       0.49641850       0.88446000
    48  C          0.28193000      -0.00358150       0.61554000
    49  C          0.70373000       0.51137140       0.25463000
    50  C          0.79627000       0.01137140       0.24537000
    51  C          0.29627000       0.48862860       0.74537000
    52  C          0.20373000       0.98862860       0.75463000
    53  C          0.57563000       0.56269130       0.26483000
    54  C          0.92437000       0.06269130       0.23517000
    55  C          0.42437000       0.43730870       0.73517000
    56  C          0.07563000       0.93730870       0.76483000
    57  C          0.29992000       0.66102110       0.28292000
    58  C          0.20008000       0.16102110       0.21708000
    59  C          0.70008000       0.33897890       0.71708000
    60  C          0.79992000       0.83897890       0.78292000
    61  C          0.33692000       0.70035120       0.41972000
    62  C          0.16308000       0.20035120       0.08028000
    63  C          0.66308000       0.29964880       0.58028000
    64  C          0.83692000       0.79964880       0.91972000
    65  C          0.21882000       0.69225120       0.53412000
    66  C          0.28118000       0.19225120       0.96588000
    67  C          0.78118000       0.30774880       0.46588000
    68  C          0.71882000       0.80774880       0.03412000
    69  C          0.09382000       0.64807120       0.48192000
    70  C          0.40618000       0.14807120       0.01808000
    71  C          0.90618000       0.35192880       0.51808000
    72  C          0.59382000       0.85192880       0.98192000
    73  H          0.34730000       0.67421300       0.06230000
    74  H          0.15270000       0.17421300       0.43770000
    75  H          0.65270000       0.32578700       0.93770000
    76  H          0.84730000       0.82578700       0.56230000
    77  H          0.92300000       0.57200000       0.55700000
    78  H          0.57700000       0.07200000       0.94300000
    79  H          0.07700000       0.42800000       0.44300000
    80  H          0.42300000       0.92800000       0.05700000
    81  H          0.85900000       0.65900000       0.51900000
    82  H          0.64100000       0.15900000       0.98100000
    83  H          0.14100000       0.34100000       0.48100000
    84  H          0.35900000       0.84100000       0.01900000
    85  H          0.95700000       0.64300000       0.67300000
    86  H          0.54300000       0.14300000       0.82700000
    87  H          0.04300000       0.35700000       0.32700000
    88  H          0.45700000       0.85700000       0.17300000
    89  H          0.78400000       0.54200000       0.88900000
    90  H          0.71600000       0.04200000       0.61100000
    91  H          0.21600000       0.45800000       0.11100000
    92  H          0.28400000       0.95800000       0.38900000
    93  H          0.87300000       0.46800000       0.10900000
    94  H          0.62700000       0.96800000       0.39100000
    95  H          0.12700000       0.53200000       0.89100000
    96  H          0.37300000       0.03200000       0.60900000
    97  H          0.73800000       0.48100000       0.34600000
    98  H          0.76200000       0.98100000       0.15400000
    99  H          0.26200000       0.51900000       0.65400000
   100  H          0.23800000       0.01900000       0.84600000
   101  H          0.52400000       0.56800000       0.36400000
   102  H          0.97600000       0.06800000       0.13600000
   103  H          0.47600000       0.43200000       0.63600000
   104  H          0.02400000       0.93200000       0.86400000
   105  H          0.22600000       0.71600000       0.63600000
   106  H          0.27400000       0.21600000       0.86400000
   107  H          0.77400000       0.28400000       0.36400000
   108  H          0.72600000       0.78400000       0.13600000
