data_QEXJEJ
_symmetry_space_group_name_H-M    'P1'
_symmetry_Int_Tables_number       1
loop_
_symmetry_equiv_pos_site_id
_symmetry_equiv_pos_as_xyz
1 x,y,z
_cell_length_a                   10.704712
_cell_length_b                   11.754414
_cell_length_c                   13.457715
_cell_angle_alpha                82.2383
_cell_angle_beta                 72.3462
_cell_angle_gamma                71.8242
loop_
_atom_site_label
_atom_site_type_symbol
_atom_site_fract_x
_atom_site_fract_y
_atom_site_fract_z
     1  O          0.33852000       0.63052000       0.40643190
     2  O          0.66148000       0.36948000       0.59356810
     3  H          0.32600000       0.63460000       0.34870000
     4  H          0.67400000       0.36540000       0.65130000
     5  O          0.31983000       0.70853000       0.22502000
     6  O          0.68017000       0.29147000       0.77498000
     7  O          0.40253000       0.85853000       0.14832000
     8  O          0.59747000       0.14147000       0.85168000
     9  H          0.36750000       0.85710000       0.10220000
    10  H          0.63250000       0.14290000       0.89780000
    11  O          0.50052000       0.63152000       0.76568180
    12  O          0.49948000       0.36848000       0.23431820
    13  H          0.51480000       0.64080000       0.82010000
    14  H          0.48520000       0.35920000       0.17990000
    15  O          0.48093000       0.71523000       0.93512000
    16  O          0.51907000       0.28477000       0.06488000
    17  O          0.30073000       0.86352000       0.00622000
    18  O          0.69927000       0.13648000      -0.00622000
    19  C          0.45753000       0.71123000       0.48722000
    20  C          0.54247000       0.28877000       0.51278000
    21  C          0.41413000       0.70663000       0.40223000
    22  C          0.58587000       0.29337000       0.59777000
    23  C          0.44003000       0.78253000       0.31013000
    24  C          0.55997000       0.21747000       0.68987000
    25  C          0.51593000       0.85863000       0.30663000
    26  C          0.48407000       0.14137000       0.69337000
    27  H          0.53070000       0.91070000       0.24870000
    28  H          0.46930000       0.08930000       0.75130000
    29  C          0.57183000       0.85993000       0.38843000
    30  C          0.42817000       0.14007000       0.61157000
    31  C          0.65374000       0.93723000       0.38253000
    32  C          0.34626000       0.06277000       0.61747000
    33  H          0.67030000       0.98760000       0.32360000
    34  H          0.32970000       0.01240000       0.67640000
    35  C          0.70774000       0.93864000       0.46093000
    36  C          0.29226000       0.06136000       0.53907000
    37  H          0.75940000      -0.00940000       0.45670000
    38  H          0.24060000       0.00940000       0.54330000
    39  C          0.68464000       0.86074000       0.54843000
    40  C          0.31536000       0.13926000       0.45157000
    41  H          0.72380000       0.85990000       0.60150000
    42  H          0.27620000       0.14010000       0.39850000
    43  C          0.60683000       0.78663000       0.55763000
    44  C          0.39317000       0.21337000       0.44237000
    45  H          0.59370000       0.73610000       0.61690000
    46  H          0.40630000       0.26390000       0.38310000
    47  C          0.54463000       0.78433000       0.47882000
    48  C          0.45537000       0.21567000       0.52118000
    49  C          0.41303000       0.64053000       0.58792000
    50  C          0.58697000       0.35947000       0.41208000
    51  H          0.49360000       0.58630000       0.60480000
    52  H          0.50640000       0.41370000       0.39520000
    53  H          0.35970000       0.59240000       0.57710000
    54  H          0.64030000       0.40760000       0.42290000
    55  C          0.32803000       0.71953000       0.68012000
    56  C          0.67197000       0.28047000       0.31988000
    57  C          0.37883000       0.71223000       0.76412000
    58  C          0.62117000       0.28777000       0.23588000
    59  C          0.30724000       0.79133000       0.84863000
    60  C          0.69276000       0.20867000       0.15137000
    61  C          0.18273000       0.87033000       0.84763000
    62  C          0.81727000       0.12967000       0.15237000
    63  H          0.13640000       0.92160000       0.90240000
    64  H          0.86360000       0.07840000       0.09760000
    65  C          0.12233000       0.87673000       0.76733000
    66  C          0.87767000       0.12327000       0.23267000
    67  C          0.99207000       0.95693000       0.76753000
    68  C          0.00793000       0.04307000       0.23247000
    69  H          0.94400000       0.00720000       0.82280000
    70  H          0.05600000      -0.00720000       0.17720000
    71  C          0.93656000       0.96134000       0.68863000
    72  C          0.06344000       0.03866000       0.31137000
    73  H          0.85210000       0.01570000       0.68880000
    74  H          0.14790000       0.98430000       0.31120000
    75  C          0.00714000       0.88363000       0.60673000
    76  C          0.99286000       0.11637000       0.39327000
    77  H          0.96770000       0.88570000       0.55340000
    78  H          0.03230000       0.11430000       0.44660000
    79  C          0.13153000       0.80533000       0.60333000
    80  C          0.86847000       0.19467000       0.39667000
    81  H          0.17560000       0.75470000       0.54790000
    82  H          0.82440000       0.24530000       0.45210000
    83  C          0.19603000       0.79883000       0.68292000
    84  C          0.80397000       0.20117000       0.31708000
    85  C          0.38314000       0.78114000       0.22303000
    86  C          0.61686000       0.21886000       0.77697000
    87  C          0.36854000       0.78794000       0.93493000
    88  C          0.63146000       0.21206000       0.06507000
    89  O          0.12743000       0.39793000       0.28353000
    90  O          0.87257000       0.60207000       0.71647000
    91  N          0.00233000       0.56643000       0.36903000
    92  N         -0.00233000       0.43357000       0.63097000
    93  C          0.00095000       0.67145000       0.41484000
    94  C         -0.00095000       0.32855000       0.58516000
    95  H          0.08860000       0.66010000       0.42570000
    96  H          0.91140000       0.33990000       0.57430000
    97  H          0.93170000       0.68350000       0.48050000
    98  H          0.06830000       0.31650000       0.51950000
    99  H          0.98140000       0.74020000       0.36870000
   100  H          0.01860000       0.25980000       0.63130000
   101  C          0.87175000       0.55505000       0.36794000
   102  C          0.12825000       0.44495000       0.63206000
   103  H          0.88690000       0.49080000       0.32440000
   104  H          0.11310000       0.50920000       0.67560000
   105  H          0.82050000       0.62850000       0.34080000
   106  H          0.17950000       0.37150000       0.65920000
   107  H          0.82130000       0.53800000       0.43760000
   108  H          0.17870000       0.46200000       0.56240000
   109  C          0.11724000       0.48624000       0.32573000
   110  C          0.88276000       0.51376000       0.67427000
   111  H          0.19810000       0.49850000       0.32780000
   112  H          0.80190000       0.50150000       0.67220000
   113  N          0.86643000       0.46013000       0.13353000
   114  N          0.13357000       0.53987000       0.86647000
   115  N          0.11603000       0.29883000       0.11922000
   116  N          0.88397000       0.70117000       0.88078000
   117  H          0.08340000       0.34790000       0.16890000
   118  H          0.91660000       0.65210000       0.83110000
   119  C          0.74374000       0.53494000       0.13884000
   120  C          0.25626000       0.46506000       0.86116000
   121  H          0.70290000       0.58530000       0.19460000
   122  H          0.29710000       0.41470000       0.80540000
   123  C          0.67115000       0.54374000       0.06694000
   124  C          0.32885000       0.45626000       0.93306000
   125  H          0.58580000       0.59960000       0.07400000
   126  H          0.41420000       0.40040000       0.92600000
   127  C          0.72715000       0.46935000       0.98616000
   128  C          0.27285000       0.53065000       0.01384000
   129  H          0.67960000       0.47290000       0.93770000
   130  H          0.32040000       0.52710000       0.06230000
   131  C          0.85585000       0.38764000       0.97627000
   132  C          0.14415000       0.61236000       0.02373000
   133  C          0.92166000       0.30314000       0.89566000
   134  C          0.07834000       0.69686000       0.10434000
   135  H          0.87780000       0.30290000       0.84570000
   136  H          0.12220000       0.69710000       0.15430000
   137  C          0.04475000       0.22424000       0.89027000
   138  C          0.95525000       0.77576000       0.10973000
   139  H          0.08480000       0.17090000       0.83660000
   140  H          0.91520000       0.82910000       0.16340000
   141  C          0.11514000       0.22104000       0.96597000
   142  C          0.88486000       0.77896000       0.03403000
   143  C          0.24295000       0.14124000       0.96616000
   144  C          0.75705000       0.85876000       0.03384000
   145  H          0.28710000       0.08610000       0.91400000
   146  H          0.71290000       0.91390000       0.08600000
   147  C          0.30394000       0.14244000       0.04104000
   148  C          0.69606000       0.85756000       0.95896000
   149  H          0.38940000       0.08930000       0.03990000
   150  H          0.61060000       0.91070000       0.96010000
   151  C          0.23704000       0.22364000       0.11904000
   152  C          0.76296000       0.77636000       0.88096000
   153  H          0.27710000       0.22530000       0.17090000
   154  H          0.72290000       0.77470000       0.82910000
   155  C          0.05184000       0.30123000       0.04633000
   156  C          0.94816000       0.69877000       0.95367000
   157  C          0.92054000       0.38603000       0.05323000
   158  C          0.07946000       0.61397000       0.94677000
