data_QEXJEJ01
_symmetry_space_group_name_H-M    'P1'
_symmetry_Int_Tables_number       1
loop_
_symmetry_equiv_pos_site_id
_symmetry_equiv_pos_as_xyz
1 x,y,z
_cell_length_a                   10.710217
_cell_length_b                   11.7522
_cell_length_c                   13.4792
_cell_angle_alpha                82.3367
_cell_angle_beta                 72.4087
_cell_angle_gamma                71.7217
loop_
_atom_site_label
_atom_site_type_symbol
_atom_site_fract_x
_atom_site_fract_y
_atom_site_fract_z
     1  O          0.98142000       0.21452000       0.43458150
     2  O          0.01858000       0.78548000       0.56541850
     3  O          0.80012000       0.36297190       0.50561150
     4  O          0.19988000       0.63702810       0.49438850
     5  H          0.83580000       0.35680000       0.55520000
     6  H          0.16420000       0.64320000       0.44480000
     7  O          0.00026180       0.13139170       0.26510140
     8  O         -0.00026180       0.86860830       0.73489860
     9  H          0.01840000       0.13570000       0.31910000
    10  H          0.98160000       0.86430000       0.68090000
    11  O          0.81932000       0.20792000       0.72515840
    12  O          0.18068000       0.79208000       0.27484160
    13  O          0.90242000       0.35822000       0.64722860
    14  O          0.09758000       0.64178000       0.35277140
    15  O          0.83812000       0.13066170       0.90625860
    16  O          0.16188000       0.86933830       0.09374140
    17  H          0.81840000       0.13650000       0.85120000
    18  H          0.18160000       0.86350000       0.14880000
    19  C          0.86883000       0.28752000       0.43479190
    20  C          0.13117000       0.71248000       0.56520810
    21  C          0.80662000       0.29122000       0.34836170
    22  C          0.19338000       0.70878000       0.65163830
    23  C          0.68242000       0.37052000       0.34821180
    24  C          0.31758000       0.62948000       0.65178820
    25  H          0.63610000       0.42180000       0.40300000
    26  H          0.36390000       0.57820000       0.59700000
    27  C          0.62242000       0.37642000       0.26721170
    28  C          0.37758000       0.62358000       0.73278830
    29  C          0.49243000       0.45722000       0.26782000
    30  C          0.50757000       0.54278000       0.73218000
    31  H          0.44500000       0.50800000       0.32280000
    32  H          0.55500000       0.49200000       0.67720000
    33  C          0.43593000       0.46143000       0.18862000
    34  C          0.56407000       0.53857000       0.81138000
    35  H          0.35090000       0.51550000       0.18940000
    36  H          0.64910000       0.48450000       0.81060000
    37  C          0.50623000       0.38412000       0.10632000
    38  C          0.49377000       0.61588000       0.89368000
    39  H          0.46690000       0.38660000       0.05290000
    40  H          0.53310000       0.61340000       0.94710000
    41  C          0.63112000       0.30532000       0.10312190
    42  C          0.36888000       0.69468000       0.89687810
    43  H          0.67540000       0.25440000       0.04780000
    44  H          0.32460000       0.74560000       0.95220000
    45  C          0.69552000       0.29892000       0.18265170
    46  C          0.30448000       0.70108000       0.81734830
    47  C          0.82752000       0.21862000       0.18003170
    48  C          0.17248000       0.78138000       0.81996830
    49  C          0.87842000       0.21272000       0.26424180
    50  C          0.12158000       0.78728000       0.73575820
    51  C          0.91232000       0.14012000       0.08797180
    52  C          0.08768000       0.85988000       0.91202820
    53  H          0.85890000       0.09240000       0.07670000
    54  H          0.14110000       0.90760000       0.92330000
    55  H          0.99270000       0.08540000       0.10500000
    56  H          0.00730000       0.91460000       0.89500000
    57  C          0.95792000       0.21092000       0.98708830
    58  C          0.04208000       0.78908000       0.01291170
    59  C          0.04412000       0.28442000       0.97842830
    60  C          0.95588000       0.71558000       0.02157170
    61  C          0.10632000       0.28602000       0.05774190
    62  C          0.89368000       0.71398000       0.94225810
    63  H          0.09320000       0.23510000       0.11660000
    64  H          0.90680000       0.76490000       0.88340000
    65  C          0.18443000       0.36043000       0.04902000
    66  C          0.81557000       0.63957000       0.95098000
    67  H          0.22330000       0.35980000       0.10220000
    68  H          0.77670000       0.64020000       0.89780000
    69  C          0.20743000       0.43813000       0.96118000
    70  C          0.79257000       0.56187000       0.03882000
    71  H          0.25920000       0.48990000       0.95720000
    72  H          0.74080000       0.51010000       0.04280000
    73  C          0.15353000       0.43723000       0.88228000
    74  C          0.84647000       0.56277000       0.11772000
    75  H          0.17000000       0.48790000       0.82370000
    76  H          0.83000000       0.51210000       0.17630000
    77  C          0.07262000       0.36052000       0.88757820
    78  C          0.92738000       0.63948000       0.11242180
    79  C          0.01602000       0.35832000       0.80646820
    80  C          0.98398000       0.64168000       0.19353180
    81  H          0.03050000       0.41010000       0.74840000
    82  H          0.96950000       0.58990000       0.25160000
    83  C          0.94042000       0.28252000       0.81036830
    84  C          0.05958000       0.71748000       0.18963170
    85  C          0.91302000       0.20642000       0.90188820
    86  C          0.08698000       0.79358000       0.09811180
    87  C          0.88293000       0.28103000       0.72228000
    88  C          0.11707000       0.71897000       0.27772000
    89  O          0.37243000       0.10292000       0.21688000
    90  O          0.62757000       0.89708000       0.78312000
    91  N          0.49833000       0.93358000       0.13098000
    92  N          0.50167000       0.06642000       0.86902000
    93  C          0.62794000       0.94375000       0.13306000
    94  C          0.37206000       0.05625000       0.86694000
    95  H          0.61280000       0.00560000       0.17900000
    96  H          0.38720000      -0.00560000       0.82100000
    97  H          0.67740000       0.96390000       0.06420000
    98  H          0.32260000       0.03610000       0.93580000
    99  H          0.68010000       0.86880000       0.15750000
   100  H          0.31990000       0.13120000       0.84250000
   101  C          0.49884000       0.82846000       0.08446000
   102  C          0.50116000       0.17154000       0.91554000
   103  H          0.40680000       0.83310000       0.08700000
   104  H          0.59320000       0.16690000       0.91300000
   105  H          0.53640000       0.75740000       0.12240000
   106  H          0.46360000       0.24260000       0.87760000
   107  H          0.55350000       0.82580000       0.01330000
   108  H          0.44650000       0.17420000       0.98670000
   109  C          0.38324000       0.01373000       0.17427000
   110  C          0.61676000       0.98627000       0.82573000
   111  H          0.30250000       0.00110000       0.17220000
   112  H          0.69750000      -0.00110000       0.82780000
   113  N          0.38322000       0.20182000       0.38013810
   114  N          0.61678000       0.79818000       0.61986190
   115  H          0.42310000       0.15240000       0.33070000
   116  H          0.57690000       0.84760000       0.66930000
   117  N          0.63402000       0.04032000       0.36631810
   118  N          0.36598000       0.95968000       0.63368190
   119  C          0.26143000       0.27743000       0.38107000
   120  C          0.73857000       0.72257000       0.61893000
   121  H          0.22070000       0.27590000       0.32950000
   122  H          0.77930000       0.72410000       0.67050000
   123  C          0.19563000       0.35823000       0.45877000
   124  C          0.80437000       0.64177000       0.54123000
   125  H          0.11010000       0.41150000       0.46010000
   126  H          0.88990000       0.58850000       0.53990000
   127  C          0.25694000       0.35963000       0.53397000
   128  C          0.74306000       0.64037000       0.46603000
   129  H          0.21300000       0.41490000       0.58590000
   130  H          0.78700000       0.58510000       0.41410000
   131  C          0.38453000       0.27893000       0.53378000
   132  C          0.61547000       0.72107000       0.46622000
   133  C          0.44833000       0.19842000       0.45318000
   134  C          0.55167000       0.80158000       0.54682000
   135  C          0.45414000       0.27593000       0.60977000
   136  C          0.54586000       0.72407000       0.39023000
   137  H          0.41320000       0.32900000       0.66370000
   138  H          0.58680000       0.67100000       0.33630000
   139  C          0.57794000       0.19753000       0.60457000
   140  C          0.42206000       0.80247000       0.39543000
   141  H          0.62160000       0.19770000       0.65450000
   142  H          0.37840000       0.80230000       0.34550000
   143  C          0.64333000       0.11403000       0.52368000
   144  C          0.35667000       0.88597000       0.47632000
   145  C          0.57883000       0.11412000       0.44708000
   146  C          0.42117000       0.88588000       0.55292000
   147  C          0.77244000       0.03083000       0.51407000
   148  C          0.22756000       0.96917000       0.48593000
   149  H          0.81920000       0.02640000       0.56310000
   150  H          0.18080000       0.97360000       0.43690000
   151  C          0.82874000       0.95667000       0.43327000
   152  C          0.17126000       0.04333000       0.56673000
   153  H          0.91460000       0.90150000       0.42610000
   154  H          0.08540000       0.09850000       0.57390000
   155  C          0.75663000       0.96397000       0.36117000
   156  C          0.24337000       0.03603000       0.63883000
   157  H          0.79680000       0.91240000       0.30630000
   158  H          0.20320000       0.08760000       0.69370000
