data_QEXJEJ02
_symmetry_space_group_name_H-M    'P1'
_symmetry_Int_Tables_number       1
loop_
_symmetry_equiv_pos_site_id
_symmetry_equiv_pos_as_xyz
1 x,y,z
_cell_length_a                   10.698918
_cell_length_b                   11.6302
_cell_length_c                   13.4212
_cell_angle_alpha                82.1625
_cell_angle_beta                 72.1065
_cell_angle_gamma                72.0585
loop_
_atom_site_label
_atom_site_type_symbol
_atom_site_fract_x
_atom_site_fract_y
_atom_site_fract_z
     1  O          0.81966130       0.70830110       0.22509900
     2  O          0.18033870       0.29169890       0.77490100
     3  O          0.89956120       0.86441110       0.14875800
     4  O          0.10043880       0.13558890       0.85124200
     5  C          0.88204150       0.78398140       0.22301110
     6  C          0.11795850       0.21601860       0.77698890
     7  C          0.94014140       0.78415130       0.31147100
     8  C          0.05985860       0.21584870       0.68852900
     9  C          0.01552150       0.86194130       0.30771110
    10  C          0.98447850       0.13805870       0.69228890
    11  H          0.02940400       0.91678300       0.24880900
    12  H          0.97059600       0.08321700       0.75119100
    13  C          0.07295140       0.86237130       0.38935110
    14  C          0.92704860       0.13762870       0.61064890
    15  C          0.15453150       0.94058140       0.38400120
    16  C          0.84546850       0.05941860       0.61599880
    17  H          0.17114300      -0.00631600       0.32416400
    18  H          0.82885700       0.00631600       0.67583600
    19  C          0.20927160       0.94049150       0.46347120
    20  C          0.79072840       0.05950850       0.53652880
    21  H          0.26203800      -0.00578500       0.45964200
    22  H          0.73796200       0.00578500       0.54035800
    23  C          0.18665150       0.85946140       0.55181120
    24  C          0.81334850       0.14053860       0.44818880
    25  H          0.22695400       0.85769400       0.60617700
    26  H          0.77304600       0.14230600       0.39382300
    27  C          0.10782140       0.78382130       0.56008110
    28  C          0.89217860       0.21617870       0.43991890
    29  H          0.09444900       0.73032600       0.62003100
    30  H          0.90555100       0.26967400       0.37996900
    31  C          0.04522130       0.78384120       0.48014100
    32  C          0.95477870       0.21615880       0.51985900
    33  C          0.95876140       0.70916120       0.48831100
    34  C          0.04123860       0.29083880       0.51168900
    35  C          0.91358140       0.70546120       0.40254110
    36  C          0.08641860       0.29453880       0.59745890
    37  O          0.83848110       0.62826100       0.40624800
    38  O          0.16151890       0.37173900       0.59375200
    39  H          0.82230000       0.64120000       0.33920000
    40  H          0.17770000       0.35880000       0.66080000
    41  C          0.91200140       0.63723120       0.58967100
    42  C          0.08799860       0.36276880       0.41032900
    43  H          0.85743200       0.58793000       0.57809200
    44  H          0.14256800       0.41207000       0.42190800
    45  H          0.99359100       0.58109900       0.60750400
    46  H          0.00640900       0.41890100       0.39249600
    47  C          0.82660140       0.71684120       0.68177100
    48  C          0.17339860       0.28315880       0.31822900
    49  C          0.69460140       0.79753120       0.68373100
    50  C          0.30539860       0.20246880       0.31626900
    51  C          0.63099150       0.80217130       0.60354110
    52  C          0.36900850       0.19782870       0.39645890
    53  H          0.67638400       0.74887600       0.54752800
    54  H          0.32361600       0.25112400       0.45247200
    55  C          0.50557150       0.88211140       0.60582120
    56  C          0.49442850       0.11788860       0.39417880
    57  H          0.46605800       0.88389600       0.55097500
    58  H          0.53394200       0.11610400       0.44902500
    59  C          0.43418150       0.96182140       0.68834130
    60  C          0.56581850       0.03817860       0.31165870
    61  H          0.34792100       0.01749200       0.68838300
    62  H          0.65207900       0.98250800       0.31161700
    63  C          0.48983150       0.95855140       0.76834120
    64  C          0.51016850       0.04144860       0.23165880
    65  H          0.44099300       0.01127500       0.82443200
    66  H          0.55900700      -0.01127500       0.17556800
    67  C          0.62024140       0.87687120       0.76835100
    68  C          0.37975860       0.12312880       0.23164900
    69  C          0.67928150       0.87262130       0.85009100
    70  C          0.32071850       0.12737870       0.14990900
    71  H          0.63162600       0.92596800       0.90586900
    72  H          0.36837400       0.07403200       0.09413100
    73  C          0.80422150       0.79286130       0.85047100
    74  C          0.19577850       0.20713870       0.14952900
    75  C          0.87710140       0.71234120       0.76630100
    76  C          0.12289860       0.28765880       0.23369900
    77  O         -0.00105890       0.63066100       0.76835800
    78  O          0.00105890       0.36933900       0.23164200
    79  H          0.01120000       0.64920000       0.83120000
    80  H          0.98880000       0.35080000       0.16880000
    81  C          0.86567160       0.79069140       0.93751110
    82  C          0.13432840       0.20930860       0.06248890
    83  O          0.97881120       0.71777110       0.93757900
    84  O          0.02118880       0.28222890       0.06242100
    85  O          0.79619120       0.86739100       0.00850800
    86  O          0.20380880       0.13260900      -0.00850800
    87  H          0.85040000       0.86030000       0.08430000
    88  H          0.14960000       0.13970000       0.91570000
    89  H          0.58020000       0.34820000       0.17201800
    90  H          0.41980000       0.65180000       0.82798200
    91  N          0.61666130       0.29923120       0.11780110
    92  N          0.38333870       0.70076880       0.88219890
    93  C          0.73944160       0.22330150       0.11529140
    94  C          0.26055840       0.77669850       0.88470860
    95  H          0.78150200       0.22448700       0.16787400
    96  H          0.21849800       0.77551300       0.83212600
    97  C          0.80583180       0.14247150       0.03578150
    98  C          0.19416820       0.85752850       0.96421850
    99  H          0.89342500       0.08803400       0.03356800
   100  H          0.10657500       0.91196600       0.96643200
   101  C          0.74388180       0.14184150       0.96040860
   102  C          0.25611820       0.85815850       0.03959140
   103  H          0.78869100       0.08611100       0.90617700
   104  H          0.21130900       0.91388900       0.09382300
   105  C          0.61466170       0.22281140       0.96247880
   106  C          0.38533830       0.77718860       0.03752120
   107  C          0.54402000       0.22690160       0.88618870
   108  C          0.45598000       0.77309840       0.11381130
   109  H          0.58562300       0.17324300       0.83025500
   110  H          0.41437700       0.82675700       0.16974500
   111  C          0.41932000       0.30580160       0.89267870
   112  C          0.58068000       0.69419840       0.10732130
   113  H          0.37420000       0.30619800       0.84168900
   114  H          0.62580000       0.69380200       0.15831100
   115  C          0.35406170       0.38912150       0.97556880
   116  C          0.64593830       0.61087850       0.02443120
   117  C          0.22376190       0.47277170       0.98633860
   118  C          0.77623810       0.52722830       0.01366140
   119  H          0.17538700       0.47763400       0.93651500
   120  H          0.82461300       0.52236600       0.06348500
   121  C          0.16776180       0.54676170       0.06913150
   122  C          0.83223820       0.45323830       0.93086850
   123  H          0.07996300       0.60339100       0.07766600
   124  H          0.92003700       0.39660900       0.92233400
   125  C          0.24170170       0.53795150       0.14137140
   126  C          0.75829830       0.46204850       0.85862860
   127  H          0.20117600       0.58977300       0.19863600
   128  H          0.79882400       0.41022700       0.80136400
   129  N          0.36480130       0.46152110       0.13438100
   130  N          0.63519870       0.53847890       0.86561900
   131  C          0.41949160       0.38793130       0.05253120
   132  C          0.58050840       0.61206870       0.94746880
   133  C          0.55138150       0.30294130       0.04456110
   134  C          0.44861850       0.69705870       0.95543890
   135  O          0.62864140       0.39454120       0.28293110
   136  O          0.37135860       0.60545880       0.71706890
   137  C          0.61803180       0.48442150       0.32642130
   138  C          0.38196820       0.51557850       0.67357870
   139  H          0.70062300       0.49726500       0.32859500
   140  H          0.29937700       0.50273500       0.67140500
   141  N          0.50172140       0.56595130       0.37099110
   142  N          0.49827860       0.43404870       0.62900890
   143  C          0.50082000       0.67126180       0.41832170
   144  C          0.49918000       0.32873820       0.58167830
   145  H          0.59439100       0.66626100       0.41706500
   146  H          0.40560900       0.33373900       0.58293500
   147  H          0.44308600       0.67398500       0.49101600
   148  H          0.55691400       0.32601500       0.50898400
   149  H          0.46429700       0.74466200       0.37884600
   150  H          0.53570300       0.25533800       0.62115400
   151  C          0.37032000       0.55532000       0.37032180
   152  C          0.62968000       0.44468000       0.62967820
   153  H          0.38487500       0.48753500       0.32801500
   154  H          0.61512500       0.51246500       0.67198500
   155  H          0.32016100       0.63034500       0.34024900
   156  H          0.67983900       0.36965500       0.65975100
   157  H          0.31713800       0.54095200       0.44224100
   158  H          0.68286200       0.45904800       0.55775900
