data_QIBMUM04
_symmetry_space_group_name_H-M    'P1'
_symmetry_Int_Tables_number       1
loop_
_symmetry_equiv_pos_site_id
_symmetry_equiv_pos_as_xyz
1 x,y,z
_cell_length_a                   15.8233
_cell_length_b                   13.1692
_cell_length_c                   9.685217
_cell_angle_alpha                90.0
_cell_angle_beta                 101.8142
_cell_angle_gamma                90.0
loop_
_atom_site_label
_atom_site_type_symbol
_atom_site_fract_x
_atom_site_fract_y
_atom_site_fract_z
     1  O          0.56672110       0.37998120       0.36448180
     2  O          0.43327890       0.37998120       0.13551820
     3  O          0.06672110       0.87998120       0.36448180
     4  O          0.93327890       0.87998120       0.13551820
     5  O          0.43327890       0.62001880       0.63551820
     6  O          0.56672110       0.62001880       0.86448180
     7  O          0.93327890       0.12001880       0.63551820
     8  O          0.06672110       0.12001880       0.86448180
     9  F          0.72020110       0.94752890       0.50584190
    10  F          0.27979890       0.94752890      -0.00584190
    11  F          0.22020110       0.44752890       0.50584190
    12  F          0.77979890       0.44752890      -0.00584190
    13  F          0.27979890       0.05247110       0.49415810
    14  F          0.72020110       0.05247110       0.00584190
    15  F          0.77979890       0.55247110       0.49415810
    16  F          0.22020110       0.55247110       0.00584190
    17  O          0.65167130       0.37260140       0.20552000
    18  O          0.34832870       0.37260140       0.29448000
    19  O          0.15167130       0.87260140       0.20552000
    20  O          0.84832870       0.87260140       0.29448000
    21  O          0.34832870       0.62739860       0.79448000
    22  O          0.65167130       0.62739860       0.70552000
    23  O          0.84832870       0.12739860       0.79448000
    24  O          0.15167130       0.12739860       0.70552000
    25  C          0.64954140       0.23213170       0.35812000
    26  C          0.35045860       0.23213170       0.14188000
    27  C          0.14954140       0.73213170       0.35812000
    28  C          0.85045860       0.73213170       0.14188000
    29  C          0.35045860       0.76786830       0.64188000
    30  C          0.64954140       0.76786830       0.85812000
    31  C          0.85045860       0.26786830       0.64188000
    32  C          0.14954140       0.26786830       0.85812000
    33  C          0.62490150       0.33352170       0.29962000
    34  C          0.37509850       0.33352170       0.20038000
    35  C          0.12490150       0.83352170       0.29962000
    36  C          0.87509850       0.83352170       0.20038000
    37  C          0.37509850       0.66647830       0.70038000
    38  C          0.62490150       0.66647830       0.79962000
    39  C          0.87509850       0.16647830       0.70038000
    40  C          0.12490150       0.16647830       0.79962000
    41  C          0.53546150       0.47369170       0.30782000
    42  C          0.46453850       0.47369170       0.19218000
    43  C          0.03546150       0.97369170       0.30782000
    44  C          0.96453850       0.97369170       0.19218000
    45  C          0.46453850       0.52630830       0.69218000
    46  C          0.53546150       0.52630830       0.80782000
    47  C          0.96453850       0.02630830       0.69218000
    48  C          0.03546150       0.02630830       0.80782000
    49  C          0.53537150       0.65556170       0.30842000
    50  C          0.46462850       0.65556170       0.19158000
    51  C          0.03537150       0.15556170       0.30842000
    52  C          0.96462850       0.15556170       0.19158000
    53  C          0.46462850       0.34443830       0.69158000
    54  C          0.53537150       0.34443830       0.80842000
    55  C          0.96462850       0.84443830       0.69158000
    56  C          0.03537150       0.84443830       0.80842000
    57  C          0.56927150       0.56163180       0.36543000
    58  C          0.43072850       0.56163180       0.13457000
    59  C          0.06927150       0.06163180       0.36543000
    60  C          0.93072850       0.06163180       0.13457000
    61  C          0.43072850       0.43836820       0.63457000
    62  C          0.56927150       0.43836820       0.86543000
    63  C          0.93072850       0.93836820       0.63457000
    64  C          0.06927150       0.93836820       0.86543000
    65  H          0.61500000       0.56060000       0.44290000
    66  H          0.38500000       0.56060000       0.05710000
    67  H          0.11500000       0.06060000       0.44290000
    68  H          0.88500000       0.06060000       0.05710000
    69  H          0.38500000       0.43940000       0.55710000
    70  H          0.61500000       0.43940000       0.94290000
    71  H          0.88500000       0.93940000       0.55710000
    72  H          0.11500000       0.93940000       0.94290000
    73  C          0.69782170       0.04263180       0.45723000
    74  C          0.30217830       0.04263180       0.04277000
    75  C          0.19782170       0.54263180       0.45723000
    76  C          0.80217830       0.54263180       0.04277000
    77  C          0.30217830       0.95736820       0.54277000
    78  C          0.69782170       0.95736820       0.95723000
    79  C          0.80217830       0.45736820       0.54277000
    80  C          0.19782170       0.45736820       0.95723000
    81  C          0.70997180       0.17732000       0.30403000
    82  C          0.29002820       0.17732000       0.19597000
    83  C          0.20997180       0.67732000       0.30403000
    84  C          0.79002820       0.67732000       0.19597000
    85  C          0.29002820       0.82268000       0.69597000
    86  C          0.70997180       0.82268000       0.80403000
    87  C          0.79002820       0.32268000       0.69597000
    88  C          0.20997180       0.32268000       0.80403000
    89  H          0.73450000       0.20560000       0.23340000
    90  H          0.26550000       0.20560000       0.26660000
    91  H          0.23450000       0.70560000       0.23340000
    92  H          0.76550000       0.70560000       0.26660000
    93  H          0.26550000       0.79440000       0.76660000
    94  H          0.73450000       0.79440000       0.73340000
    95  H          0.76550000       0.29440000       0.76660000
    96  H          0.23450000       0.29440000       0.73340000
    97  C          0.73436180       0.08122000       0.35373000
    98  C          0.26563820       0.08122000       0.14627000
    99  C          0.23436180       0.58122000       0.35373000
   100  C          0.76563820       0.58122000       0.14627000
   101  C          0.26563820       0.91878000       0.64627000
   102  C          0.73436180       0.91878000       0.85373000
   103  C          0.76563820       0.41878000       0.64627000
   104  C          0.23436180       0.41878000       0.85373000
   105  H          0.77470000       0.04400000       0.31720000
   106  H          0.22530000       0.04400000       0.18280000
   107  H          0.27470000       0.54400000       0.31720000
   108  H          0.72530000       0.54400000       0.18280000
   109  H          0.22530000       0.95600000       0.68280000
   110  H          0.77470000       0.95600000       0.81720000
   111  H          0.72530000       0.45600000       0.68280000
   112  H          0.27470000       0.45600000       0.81720000
   113  C          0.56969170       0.74932000       0.36313000
   114  C          0.43030830       0.74932000       0.13687000
   115  C          0.06969170       0.24932000       0.36313000
   116  C          0.93030830       0.24932000       0.13687000
   117  C          0.43030830       0.25068000       0.63687000
   118  C          0.56969170       0.25068000       0.86313000
   119  C          0.93030830       0.75068000       0.63687000
   120  C          0.06969170       0.75068000       0.86313000
   121  H          0.61650000       0.75030000       0.43880000
   122  H          0.38350000       0.75030000       0.06120000
   123  H          0.11650000       0.25030000       0.43880000
   124  H          0.88350000       0.25030000       0.06120000
   125  H          0.38350000       0.24970000       0.56120000
   126  H          0.61650000       0.24970000       0.93880000
   127  H          0.88350000       0.74970000       0.56120000
   128  H          0.11650000       0.74970000       0.93880000
   129  C          0.61515190       0.19012000       0.46503000
   130  C          0.38484810       0.19012000       0.03497000
   131  C          0.11515190       0.69012000       0.46503000
   132  C          0.88484810       0.69012000       0.03497000
   133  C          0.38484810       0.80988000       0.53497000
   134  C          0.61515190       0.80988000       0.96503000
   135  C          0.88484810       0.30988000       0.53497000
   136  C          0.11515190       0.30988000       0.96503000
   137  H          0.57530000       0.22680000       0.50350000
   138  H          0.42470000       0.22680000      -0.00350000
   139  H          0.07530000       0.72680000       0.50350000
   140  H          0.92470000       0.72680000      -0.00350000
   141  H          0.42470000       0.77320000       0.49650000
   142  H          0.57530000       0.77320000       0.00350000
   143  H          0.92470000       0.27320000       0.49650000
   144  H          0.07530000       0.27320000       0.00350000
   145  C          0.53524190       0.83862000       0.30663000
   146  C          0.46475810       0.83862000       0.19337000
   147  C          0.03524190       0.33862000       0.30663000
   148  C          0.96475810       0.33862000       0.19337000
   149  C          0.46475810       0.16138000       0.69337000
   150  C          0.53524190       0.16138000       0.80663000
   151  C          0.96475810       0.66138000       0.69337000
   152  C          0.03524190       0.66138000       0.80663000
   153  H          0.55880000       0.89980000       0.34380000
   154  H          0.44120000       0.89980000       0.15620000
   155  H          0.05880000       0.39980000       0.34380000
   156  H          0.94120000       0.39980000       0.15620000
   157  H          0.44120000       0.10020000       0.65620000
   158  H          0.55880000       0.10020000       0.84380000
   159  H          0.94120000       0.60020000       0.65620000
   160  H          0.05880000       0.60020000       0.84380000
   161  C          0.63942000       0.09422000       0.51533000
   162  C          0.36058000       0.09422000       0.98467000
   163  C          0.13942000       0.59422000       0.51533000
   164  C          0.86058000       0.59422000       0.98467000
   165  C          0.36058000       0.90578000       0.48467000
   166  C          0.63942000       0.90578000       0.01533000
   167  C          0.86058000       0.40578000       0.48467000
   168  C          0.13942000       0.40578000       0.01533000
   169  H          0.61630000       0.06550000       0.58720000
   170  H          0.38370000       0.06550000       0.91280000
   171  H          0.11630000       0.56550000       0.58720000
   172  H          0.88370000       0.56550000       0.91280000
   173  H          0.38370000       0.93450000       0.41280000
   174  H          0.61630000       0.93450000       0.08720000
   175  H          0.88370000       0.43450000       0.41280000
   176  H          0.11630000       0.43450000       0.08720000
