data_QIBMUM01
_symmetry_space_group_name_H-M    'P1'
_symmetry_Int_Tables_number       1
loop_
_symmetry_equiv_pos_site_id
_symmetry_equiv_pos_as_xyz
1 x,y,z
_cell_length_a                   13.66284
_cell_length_b                   15.28985
_cell_length_c                   9.74833
_cell_angle_alpha                90.0
_cell_angle_beta                 107.23301
_cell_angle_gamma                90.0
loop_
_atom_site_label
_atom_site_type_symbol
_atom_site_fract_x
_atom_site_fract_y
_atom_site_fract_z
     1  F          0.34855110       0.02305800       0.57762000
     2  F          0.65144890       0.02305800       0.92238000
     3  F          0.84855110       0.52305800       0.57762000
     4  F          0.15144890       0.52305800       0.92238000
     5  F          0.65144890       0.97694200       0.42238000
     6  F          0.34855110       0.97694200       0.07762000
     7  F          0.15144890       0.47694200       0.42238000
     8  F          0.84855110       0.47694200       0.07762000
     9  O          0.42307100       0.61823900       0.62808120
    10  O          0.57692900       0.61823900       0.87191880
    11  O          0.92307100       0.11823900       0.62808120
    12  O          0.07692900       0.11823900       0.87191880
    13  O          0.57692900       0.38176100       0.37191880
    14  O          0.42307100       0.38176100       0.12808120
    15  O          0.07692900       0.88176100       0.37191880
    16  O          0.92307100       0.88176100       0.12808120
    17  O          0.32352120       0.62837100       0.77338180
    18  O          0.67647880       0.62837100       0.72661820
    19  O          0.82352120       0.12837100       0.77338180
    20  O          0.17647880       0.12837100       0.72661820
    21  O          0.67647880       0.37162900       0.22661820
    22  O          0.32352120       0.37162900       0.27338180
    23  O          0.17647880       0.87162900       0.22661820
    24  O          0.82352120       0.87162900       0.27338180
    25  C          0.45833000       0.22345190       0.69004000
    26  C          0.54167000       0.22345190       0.80996000
    27  C          0.95833000       0.72345190       0.69004000
    28  C          0.04167000       0.72345190       0.80996000
    29  C          0.54167000       0.77654810       0.30996000
    30  C          0.45833000       0.77654810       0.19004000
    31  C          0.04167000       0.27654810       0.30996000
    32  C          0.95833000       0.27654810       0.19004000
    33  H          0.42960000       0.17050000       0.65130000
    34  H          0.57040000       0.17050000       0.84870000
    35  H          0.92960000       0.67050000       0.65130000
    36  H          0.07040000       0.67050000       0.84870000
    37  H          0.57040000       0.82950000       0.34870000
    38  H          0.42960000       0.82950000       0.15130000
    39  H          0.07040000       0.32950000       0.34870000
    40  H          0.92960000       0.32950000       0.15130000
    41  C          0.41662000       0.29990180       0.62604000
    42  C          0.58338000       0.29990180       0.87396000
    43  C          0.91662000       0.79990180       0.62604000
    44  C          0.08338000       0.79990180       0.87396000
    45  C          0.58338000       0.70009820       0.37396000
    46  C          0.41662000       0.70009820       0.12604000
    47  C          0.08338000       0.20009820       0.37396000
    48  C          0.91662000       0.20009820       0.12604000
    49  H          0.36120000       0.29860000       0.54300000
    50  H          0.63880000       0.29860000       0.95700000
    51  H          0.86120000       0.79860000       0.54300000
    52  H          0.13880000       0.79860000       0.95700000
    53  H          0.63880000       0.70140000       0.45700000
    54  H          0.36120000       0.70140000       0.04300000
    55  H          0.13880000       0.20140000       0.45700000
    56  H          0.86120000       0.20140000       0.04300000
    57  C          0.45784170       0.38092140       0.68632000
    58  C          0.54215830       0.38092140       0.81368000
    59  C          0.95784170       0.88092140       0.68632000
    60  C          0.04215830       0.88092140       0.81368000
    61  C          0.54215830       0.61907860       0.31368000
    62  C          0.45784170       0.61907860       0.18632000
    63  C          0.04215830       0.11907860       0.31368000
    64  C          0.95784170       0.11907860       0.18632000
    65  C          0.41712160       0.46145150       0.62432000
    66  C          0.58287840       0.46145150       0.87568000
    67  C          0.91712160       0.96145150       0.62432000
    68  C          0.08287840       0.96145150       0.87568000
    69  C          0.58287840       0.53854850       0.37568000
    70  C          0.41712160       0.53854850       0.12432000
    71  C          0.08287840       0.03854850       0.37568000
    72  C          0.91712160       0.03854850       0.12432000
    73  H          0.36240000       0.46250000       0.54050000
    74  H          0.63760000       0.46250000       0.95950000
    75  H          0.86240000       0.96250000       0.54050000
    76  H          0.13760000       0.96250000       0.95950000
    77  H          0.63760000       0.53750000       0.45950000
    78  H          0.36240000       0.53750000       0.04050000
    79  H          0.13760000       0.03750000       0.45950000
    80  H          0.86240000       0.03750000       0.04050000
    81  C          0.45796140       0.53679130       0.68729190
    82  C          0.54203860       0.53679130       0.81270810
    83  C          0.95796140       0.03679130       0.68729190
    84  C          0.04203860       0.03679130       0.81270810
    85  C          0.54203860       0.46320870       0.31270810
    86  C          0.45796140       0.46320870       0.18729190
    87  C          0.04203860       0.96320870       0.31270810
    88  C          0.95796140       0.96320870       0.18729190
    89  C          0.36270120       0.66300140       0.69289180
    90  C          0.63729880       0.66300140       0.80710820
    91  C          0.86270120       0.16300140       0.69289180
    92  C          0.13729880       0.16300140       0.80710820
    93  C          0.63729880       0.33699860       0.30710820
    94  C          0.36270120       0.33699860       0.19289180
    95  C          0.13729880       0.83699860       0.30710820
    96  C          0.86270120       0.83699860       0.19289180
    97  C          0.35614110       0.75662130       0.65549160
    98  C          0.64385890       0.75662130       0.84450840
    99  C          0.85614110       0.25662130       0.65549160
   100  C          0.14385890       0.25662130       0.84450840
   101  C          0.64385890       0.24337870       0.34450840
   102  C          0.35614110       0.24337870       0.15549160
   103  C          0.14385890       0.74337870       0.34450840
   104  C          0.85614110       0.74337870       0.15549160
   105  C          0.29921140       0.81122160       0.71502000
   106  C          0.70078860       0.81122160       0.78498000
   107  C          0.79921140       0.31122160       0.71502000
   108  C          0.20078860       0.31122160       0.78498000
   109  C          0.70078860       0.18877840       0.28498000
   110  C          0.29921140       0.18877840       0.21502000
   111  C          0.20078860       0.68877840       0.28498000
   112  C          0.79921140       0.68877840       0.21502000
   113  H          0.26280000       0.78800000       0.77330000
   114  H          0.73720000       0.78800000       0.72670000
   115  H          0.76280000       0.28800000       0.77330000
   116  H          0.23720000       0.28800000       0.72670000
   117  H          0.73720000       0.21200000       0.22670000
   118  H          0.26280000       0.21200000       0.27330000
   119  H          0.23720000       0.71200000       0.22670000
   120  H          0.76280000       0.71200000       0.27330000
   121  C          0.29587170       0.89961170       0.68872000
   122  C          0.70412830       0.89961170       0.81128000
   123  C          0.79587170       0.39961170       0.68872000
   124  C          0.20412830       0.39961170       0.81128000
   125  C          0.70412830       0.10038830       0.31128000
   126  C          0.29587170       0.10038830       0.18872000
   127  C          0.20412830       0.60038830       0.31128000
   128  C          0.79587170       0.60038830       0.18872000
   129  H          0.25780000       0.93650000       0.72910000
   130  H          0.74220000       0.93650000       0.77090000
   131  H          0.75780000       0.43650000       0.72910000
   132  H          0.24220000       0.43650000       0.77090000
   133  H          0.74220000       0.06350000       0.27090000
   134  H          0.25780000       0.06350000       0.22910000
   135  H          0.24220000       0.56350000       0.27090000
   136  H          0.75780000       0.56350000       0.22910000
   137  C          0.34927160       0.93220150       0.60273000
   138  C          0.65072840       0.93220150       0.89727000
   139  C          0.84927160       0.43220150       0.60273000
   140  C          0.15072840       0.43220150       0.89727000
   141  C          0.65072840       0.06779850       0.39727000
   142  C          0.34927160       0.06779850       0.10273000
   143  C          0.15072840       0.56779850       0.39727000
   144  C          0.84927160       0.56779850       0.10273000
   145  C          0.40521180       0.87930160       0.53993000
   146  C          0.59478820       0.87930160       0.96007000
   147  C          0.90521180       0.37930160       0.53993000
   148  C          0.09478820       0.37930160       0.96007000
   149  C          0.59478820       0.12069840       0.46007000
   150  C          0.40521180       0.12069840       0.03993000
   151  C          0.09478820       0.62069840       0.46007000
   152  C          0.90521180       0.62069840       0.03993000
   153  H          0.44040000       0.90280000       0.48010000
   154  H          0.55960000       0.90280000       0.01990000
   155  H          0.94040000       0.40280000       0.48010000
   156  H          0.05960000       0.40280000       0.01990000
   157  H          0.55960000       0.09720000       0.51990000
   158  H          0.44040000       0.09720000       0.98010000
   159  H          0.05960000       0.59720000       0.51990000
   160  H          0.94040000       0.59720000       0.98010000
   161  C          0.40807140       0.79182140       0.56702000
   162  C          0.59192860       0.79182140       0.93298000
   163  C          0.90807140       0.29182140       0.56702000
   164  C          0.09192860       0.29182140       0.93298000
   165  C          0.59192860       0.20817860       0.43298000
   166  C          0.40807140       0.20817860       0.06702000
   167  C          0.09192860       0.70817860       0.43298000
   168  C          0.90807140       0.70817860       0.06702000
   169  H          0.44560000       0.75530000       0.52520000
   170  H          0.55440000       0.75530000       0.97480000
   171  H          0.94560000       0.25530000       0.52520000
   172  H          0.05440000       0.25530000       0.97480000
   173  H          0.55440000       0.24470000       0.47480000
   174  H          0.44560000       0.24470000       0.02520000
   175  H          0.05440000       0.74470000       0.47480000
   176  H          0.94560000       0.74470000       0.02520000
