data_QIBMUM
_symmetry_space_group_name_H-M    'P1'
_symmetry_Int_Tables_number       1
loop_
_symmetry_equiv_pos_site_id
_symmetry_equiv_pos_as_xyz
1 x,y,z
_cell_length_a                   13.0493
_cell_length_b                   9.5772
_cell_length_c                   18.4844
_cell_angle_alpha                90.0
_cell_angle_beta                 124.84413
_cell_angle_gamma                90.0
loop_
_atom_site_label
_atom_site_type_symbol
_atom_site_fract_x
_atom_site_fract_y
_atom_site_fract_z
     1  F          0.49107110       0.72775890       0.18433700
     2  F          0.50892890       0.22775890       0.31566300
     3  F          0.50892890       0.27224110       0.81566300
     4  F          0.49107110       0.77224110       0.68433700
     5  F          0.95795880       0.01169130       0.13350800
     6  F          0.04204120       0.51169130       0.36649200
     7  F          0.04204120      -0.01169130       0.86649200
     8  F          0.95795880       0.48830870       0.63350800
     9  O          0.34537110       0.29938110       0.98741700
    10  O          0.65462890       0.79938110       0.51258300
    11  O          0.65462890       0.70061890       0.01258300
    12  O          0.34537110       0.20061890       0.48741700
    13  O          0.12279110       0.39787130       0.94835700
    14  O          0.87720890       0.89787130       0.55164300
    15  O          0.87720890       0.60212870       0.05164300
    16  O          0.12279110       0.10212870       0.44835700
    17  O          0.26090150       0.15938130       0.86903800
    18  O          0.73909850       0.65938130       0.63096200
    19  O          0.73909850       0.84061870       0.13096200
    20  O          0.26090150       0.34061870       0.36903800
    21  O          0.27067140       0.46466150       0.08791800
    22  O          0.72932860       0.96466150       0.41208200
    23  O          0.72932860       0.53533850       0.91208200
    24  O          0.27067140       0.03533850       0.58791800
    25  C          0.28732000       0.77732000       0.74800120
    26  C          0.71268000       0.27732000       0.75199880
    27  C          0.71268000       0.22268000       0.25199880
    28  C          0.28732000       0.72268000       0.24800120
    29  H          0.32290000       0.82020000       0.72220000
    30  H          0.67710000       0.32020000       0.77780000
    31  H          0.67710000       0.17980000       0.27780000
    32  H          0.32290000       0.67980000       0.22220000
    33  C          0.17646190       0.82860190       0.73145110
    34  C          0.82353810       0.32860190       0.76854890
    35  C          0.82353810       0.17139810       0.26854890
    36  C          0.17646190       0.67139810       0.23145110
    37  H          0.13980000       0.90730000       0.69620000
    38  H          0.86020000       0.40730000       0.80380000
    39  H          0.86020000       0.09270000       0.30380000
    40  H          0.13980000       0.59270000       0.19620000
    41  C          0.34490180       0.66452000       0.80181120
    42  C          0.65509820       0.16452000       0.69818880
    43  C          0.65509820       0.33548000       0.19818880
    44  C          0.34490180       0.83548000       0.30181120
    45  H          0.41960000       0.63180000       0.81270000
    46  H          0.58040000       0.13180000       0.68730000
    47  H          0.58040000       0.36820000       0.18730000
    48  H          0.41960000       0.86820000       0.31270000
    49  C          0.12132170       0.76521170       0.76614100
    50  C          0.87867830       0.26521170       0.73385900
    51  C          0.87867830       0.23478830       0.23385900
    52  C          0.12132170       0.73478830       0.26614100
    53  H          0.04550000       0.79880000       0.75280000
    54  H          0.95450000       0.29880000       0.74720000
    55  H          0.95450000       0.20120000       0.24720000
    56  H          0.04550000       0.70120000       0.25280000
    57  C          0.29184150       0.59702160       0.84109100
    58  C          0.70815850       0.09702160       0.65890900
    59  C          0.70815850       0.40297840       0.15890900
    60  C          0.29184150       0.90297840       0.34109100
    61  C          0.17757150       0.64806150       0.82260900
    62  C          0.82242850       0.14806150       0.67739100
    63  C          0.82242850       0.35193850       0.17739100
    64  C          0.17757150       0.85193850       0.32260900
    65  C          0.34798150       0.47847160       0.89694100
    66  C          0.65201850       0.97847160       0.60305900
    67  C          0.65201850       0.52152840       0.10305900
    68  C          0.34798150       0.02152840       0.39694100
    69  H          0.42300000       0.44380000       0.90940000
    70  H          0.57700000       0.94380000       0.59060000
    71  H          0.57700000       0.55620000       0.09060000
    72  H          0.42300000       0.05620000       0.40940000
    73  C          0.12396160       0.58103160       0.86143100
    74  C          0.87603840       0.08103160       0.63856900
    75  C          0.87603840       0.41896840       0.13856900
    76  C          0.12396160       0.91896840       0.36143100
    77  H          0.04880000       0.61350000       0.84990000
    78  H          0.95120000       0.11350000       0.65010000
    79  H          0.95120000       0.38650000       0.15010000
    80  H          0.04880000       0.88650000       0.34990000
    81  C          0.29287150       0.41608150       0.93194900
    82  C          0.70712850       0.91608150       0.56805100
    83  C          0.70712850       0.58391850       0.06805100
    84  C          0.29287150       0.08391850       0.43194900
    85  C          0.18124150       0.46922160       0.91561100
    86  C          0.81875850       0.96922160       0.58438900
    87  C          0.81875850       0.53077840       0.08438900
    88  C          0.18124150       0.03077840       0.41561100
    89  C          0.31598150       0.17156160       0.94693100
    90  C          0.68401850       0.67156160       0.55306900
    91  C          0.68401850       0.82843840       0.05306900
    92  C          0.31598150       0.32843840       0.44693100
    93  C          0.18007170       0.39609180       0.03787110
    94  C          0.81992830       0.89609180       0.46212890
    95  C          0.81992830       0.60390820       0.96212890
    96  C          0.18007170       0.10390820       0.53787110
    97  C          0.36191130       0.05628150       0.01194900
    98  C          0.63808870       0.55628150       0.48805100
    99  C          0.63808870       0.94371850       0.98805100
   100  C          0.36191130       0.44371850       0.51194900
   101  C          0.11664150       0.29825170       0.06179100
   102  C          0.88335850       0.79825170       0.43820900
   103  C          0.88335850       0.70174830       0.93820900
   104  C          0.11664150       0.20174830       0.56179100
   105  C          0.35170160       0.92077830       0.98195110
   106  C          0.64829840       0.42077830       0.51804890
   107  C          0.64829840       0.07922170       0.01804890
   108  C          0.35170160       0.57922170       0.48195110
   109  H          0.31680000       0.90470000       0.92260000
   110  H          0.68320000       0.40470000       0.57740000
   111  H          0.68320000       0.09530000       0.07740000
   112  H          0.31680000       0.59530000       0.42260000
   113  C          0.17347170       0.26502000       0.15019110
   114  C          0.82652830       0.76502000       0.34980890
   115  C          0.82652830       0.73498000       0.84980890
   116  C          0.17347170       0.23498000       0.65019110
   117  H          0.24790000       0.30820000       0.19320000
   118  H          0.75210000       0.80820000       0.30680000
   119  H          0.75210000       0.69180000       0.80680000
   120  H          0.24790000       0.19180000       0.69320000
   121  C          0.39298160       0.80977820       0.03958120
   122  C          0.60701840       0.30977820       0.46041880
   123  C          0.60701840       0.19022180       0.96041880
   124  C          0.39298160       0.69022180       0.53958120
   125  H          0.38480000       0.71860000       0.01960000
   126  H          0.61520000       0.21860000       0.48040000
   127  H          0.61520000       0.28140000       0.98040000
   128  H          0.38480000       0.78140000       0.51960000
   129  C          0.12003180       0.16822000       0.17435120
   130  C          0.87996820       0.66822000       0.32564880
   131  C          0.87996820       0.83178000       0.82564880
   132  C          0.12003180       0.33178000       0.67435120
   133  H          0.15830000       0.14460000       0.23330000
   134  H          0.84170000       0.64460000       0.26670000
   135  H          0.84170000       0.85540000       0.76670000
   136  H          0.15830000       0.35540000       0.73330000
   137  C          0.44606160       0.83664830       0.12650110
   138  C          0.55393840       0.33664830       0.37349890
   139  C          0.55393840       0.16335170       0.87349890
   140  C          0.44606160       0.66335170       0.62650110
   141  C          0.00987190       0.10787190       0.11012120
   142  C         -0.00987190       0.60787190       0.38987880
   143  C         -0.00987190       0.89212810       0.88987880
   144  C          0.00987190       0.39212810       0.61012120
   145  C          0.45652000       0.96834810       0.15881120
   146  C          0.54348000       0.46834810       0.34118880
   147  C          0.54348000       0.03165190       0.84118880
   148  C          0.45652000       0.53165190       0.65881120
   149  H          0.49200000       0.98310000       0.21840000
   150  H          0.50800000       0.48310000       0.28160000
   151  H          0.50800000       0.01690000       0.78160000
   152  H          0.49200000       0.51690000       0.71840000
   153  C          0.94916810       0.14092000       0.02271120
   154  C          0.05083190       0.64092000       0.47728880
   155  C          0.05083190       0.85908000       0.97728880
   156  C          0.94916810       0.35908000       0.52271120
   157  H          0.87280000       0.10020000       0.98050000
   158  H          0.12720000       0.60020000       0.51950000
   159  H          0.12720000       0.89980000       0.01950000
   160  H          0.87280000       0.39980000       0.48050000
   161  C          0.41280180       0.07903170       0.10013110
   162  C          0.58719820       0.57903170       0.39986890
   163  C          0.58719820       0.92096830       0.89986890
   164  C          0.41280180       0.42096830       0.60013110
   165  H          0.41770000       0.16940000       0.12030000
   166  H          0.58230000       0.66940000       0.37970000
   167  H          0.58230000       0.83060000       0.87970000
   168  H          0.41770000       0.33060000       0.62030000
   169  C          0.00394180       0.23570190      -0.00113890
   170  C         -0.00394180       0.73570190       0.50113890
   171  C         -0.00394180       0.76429810       0.00113890
   172  C          0.00394180       0.26429810       0.49886110
   173  H          0.96480000       0.25820000       0.93970000
   174  H          0.03520000       0.75820000       0.56030000
   175  H          0.03520000       0.74180000       0.06030000
   176  H          0.96480000       0.24180000       0.43970000
