data_QIFJAS
_symmetry_space_group_name_H-M    'P1'
_symmetry_Int_Tables_number       1
loop_
_symmetry_equiv_pos_site_id
_symmetry_equiv_pos_as_xyz
1 x,y,z
_cell_length_a                   7.78013
_cell_length_b                   6.79052
_cell_length_c                   40.583716
_cell_angle_alpha                90.0
_cell_angle_beta                 95.3283
_cell_angle_gamma                90.0
loop_
_atom_site_label
_atom_site_type_symbol
_atom_site_fract_x
_atom_site_fract_y
_atom_site_fract_z
     1  C          0.38312000       0.50893000       0.19438500
     2  C          0.61688000       0.00893000       0.30561500
     3  C          0.61688000       0.49107000       0.80561500
     4  C          0.38312000      -0.00893000       0.69438500
     5  C          0.24203000       0.53173000       0.21251500
     6  C          0.75797000       0.03173000       0.28748500
     7  C          0.75797000       0.46827000       0.78748500
     8  C          0.24203000       0.96827000       0.71251500
     9  C          0.20123000       0.39223000       0.23526500
    10  C          0.79877000       0.89223000       0.26473500
    11  C          0.79877000       0.60777000       0.76473500
    12  C          0.20123000       0.10777000       0.73526500
    13  H          0.10390000       0.40930000       0.24750000
    14  H          0.89610000       0.90930000       0.25250000
    15  H          0.89610000       0.59070000       0.75250000
    16  H          0.10390000       0.09070000       0.74750000
    17  C          0.30393000       0.22803000       0.23988600
    18  C          0.69607000       0.72803000       0.26011400
    19  C          0.69607000       0.77197000       0.76011400
    20  C          0.30393000       0.27197000       0.73988600
    21  H          0.27920000       0.13290000       0.25600000
    22  H          0.72080000       0.63290000       0.24400000
    23  H          0.72080000       0.86710000       0.74400000
    24  H          0.27920000       0.36710000       0.75600000
    25  C          0.44273000       0.19943000       0.22144600
    26  C          0.55727000       0.69943000       0.27855400
    27  C          0.55727000       0.80057000       0.77855400
    28  C          0.44273000       0.30057000       0.72144600
    29  H          0.51120000       0.08410000       0.22490000
    30  H          0.48880000       0.58410000       0.27510000
    31  H          0.48880000       0.91590000       0.77510000
    32  H          0.51120000       0.41590000       0.72490000
    33  C          0.48382000       0.33693000       0.19788500
    34  C          0.51618000       0.83693000       0.30211500
    35  C          0.51618000       0.66307000       0.80211500
    36  C          0.48382000       0.16307000       0.69788500
    37  C          0.76473000       0.18643000       0.19038500
    38  C          0.23527000       0.68643000       0.30961500
    39  C          0.23527000       0.81357000       0.80961500
    40  C          0.76473000       0.31357000       0.69038500
    41  H          0.72730000       0.04720000       0.18840000
    42  H          0.27270000       0.54720000       0.31160000
    43  H          0.27270000       0.95280000       0.81160000
    44  H          0.72730000       0.45280000       0.68840000
    45  H          0.79980000       0.21430000       0.21400000
    46  H          0.20020000       0.71430000       0.28600000
    47  H          0.20020000       0.78570000       0.78600000
    48  H          0.79980000       0.28570000       0.71400000
    49  C          0.91513000       0.22213000       0.16986500
    50  C          0.08487000       0.72213000       0.33013500
    51  C          0.08487000       0.77787000       0.83013500
    52  C          0.91513000       0.27787000       0.66986500
    53  H          0.95350000       0.36060000       0.17260000
    54  H          0.04650000       0.86060000       0.32740000
    55  H          0.04650000       0.63940000       0.82740000
    56  H          0.95350000       0.13940000       0.67260000
    57  H          0.01280000       0.13610000       0.17790000
    58  H         -0.01280000       0.63610000       0.32210000
    59  H         -0.01280000       0.86390000       0.82210000
    60  H          0.01280000       0.36390000       0.67790000
    61  C          0.72343000       0.30893000       0.12297500
    62  C          0.27657000       0.80893000       0.37702500
    63  C          0.27657000       0.69107000       0.87702500
    64  C          0.72343000       0.19107000       0.62297500
    65  H          0.68850000       0.27940000       0.09940000
    66  H          0.31150000       0.77940000       0.40060000
    67  H          0.31150000       0.72060000       0.90060000
    68  H          0.68850000       0.22060000       0.59940000
    69  H          0.75930000       0.44860000       0.12470000
    70  H          0.24070000       0.94860000       0.37530000
    71  H          0.24070000       0.55140000       0.87530000
    72  H          0.75930000       0.05140000       0.62470000
    73  C          0.57263000       0.27423000       0.14330500
    74  C          0.42737000       0.77423000       0.35669500
    75  C          0.42737000       0.72577000       0.85669500
    76  C          0.57263000       0.22577000       0.64330500
    77  H          0.47500000       0.36020000       0.13520000
    78  H          0.52500000       0.86020000       0.36480000
    79  H          0.52500000       0.63980000       0.86480000
    80  H          0.47500000       0.13980000       0.63520000
    81  H          0.53410000       0.13560000       0.14080000
    82  H          0.46590000       0.63560000       0.35920000
    83  H          0.46590000       0.86440000       0.85920000
    84  H          0.53410000       0.36440000       0.64080000
    85  C          0.01492000       0.20443000       0.11549500
    86  C         -0.01492000       0.70443000       0.38450500
    87  C         -0.01492000       0.79557000       0.88450500
    88  C          0.01492000       0.29557000       0.61549500
    89  H          0.08260000       0.32150000       0.12340000
    90  H          0.91740000       0.82150000       0.37660000
    91  H          0.91740000       0.67850000       0.87660000
    92  H          0.08260000       0.17850000       0.62340000
    93  H          0.97250000       0.22670000       0.09200000
    94  H          0.02750000       0.72670000       0.40800000
    95  H          0.02750000       0.77330000       0.90800000
    96  H          0.97250000       0.27330000       0.59200000
    97  C          0.13172000       0.02413000       0.11791500
    98  C          0.86828000       0.52413000       0.38208500
    99  C          0.86828000       0.97587000       0.88208500
   100  C          0.13172000       0.47587000       0.61791500
   101  H          0.18130000       0.00880000       0.14110000
   102  H          0.81870000       0.50880000       0.35890000
   103  H          0.81870000      -0.00880000       0.85890000
   104  H          0.18130000       0.49120000       0.64110000
   105  H          0.22850000       0.04600000       0.10410000
   106  H          0.77150000       0.54600000       0.39590000
   107  H          0.77150000       0.95400000       0.89590000
   108  H          0.22850000       0.45400000       0.60410000
   109  C          0.03872000       0.83317000       0.10677500
   110  C          0.96128000       0.33317000       0.39322500
   111  C          0.96128000       0.16683000       0.89322500
   112  C          0.03872000       0.66683000       0.60677500
   113  H          0.11730000       0.72030000       0.11180000
   114  H          0.88270000       0.22030000       0.38820000
   115  H          0.88270000       0.27970000       0.88820000
   116  H          0.11730000       0.77970000       0.61180000
   117  H          0.93700000       0.81530000       0.11940000
   118  H          0.06300000       0.31530000       0.38060000
   119  H          0.06300000       0.18470000       0.88060000
   120  H          0.93700000       0.68470000       0.61940000
   121  C         -0.01938000       0.83457000       0.07033500
   122  C          0.01938000       0.33457000       0.42966500
   123  C          0.01938000       0.16543000       0.92966500
   124  C         -0.01938000       0.66543000       0.57033500
   125  H          0.89700000       0.94260000       0.06510000
   126  H          0.10300000       0.44260000       0.43490000
   127  H          0.10300000       0.05740000       0.93490000
   128  H          0.89700000       0.55740000       0.56510000
   129  H          0.08070000       0.85460000       0.05730000
   130  H          0.91930000       0.35460000       0.44270000
   131  H          0.91930000       0.14540000       0.94270000
   132  H          0.08070000       0.64540000       0.55730000
   133  C          0.83842000       0.61457000       0.03049500
   134  C          0.16158000       0.11457000       0.46950500
   135  C          0.16158000       0.38543000       0.96950500
   136  C          0.83842000       0.88543000       0.53049500
   137  C          0.85422000       0.74637000       0.00436500
   138  C          0.14578000       0.24637000       0.49563500
   139  C          0.14578000       0.25363000       0.99563500
   140  C          0.85422000       0.75363000       0.50436500
   141  H          0.91110000       0.86890000       0.00840000
   142  H          0.08890000       0.36890000       0.49160000
   143  H          0.08890000       0.13110000       0.99160000
   144  H          0.91110000       0.63110000       0.50840000
   145  C          0.78742000       0.69787000       0.97298500
   146  C          0.21258000       0.19787000       0.52701500
   147  C          0.21258000       0.30213000       0.02701500
   148  C          0.78742000       0.80213000       0.47298500
   149  H          0.79900000       0.78810000       0.95540000
   150  H          0.20100000       0.28810000       0.54460000
   151  H          0.20100000       0.21190000       0.04460000
   152  H          0.79900000       0.71190000       0.45540000
   153  C          0.70222000       0.51847000       0.96617500
   154  C          0.29778000       0.01847000       0.53382500
   155  C          0.29778000       0.48153000       0.03382500
   156  C          0.70222000      -0.01847000       0.46617500
   157  C          0.62732000       0.45877000       0.93429500
   158  C          0.37268000       0.95877000       0.56570500
   159  C          0.37268000       0.54123000       0.06570500
   160  C          0.62732000       0.04123000       0.43429500
   161  H          0.63820000       0.54230000       0.91580000
   162  H          0.36180000       0.04230000       0.58420000
   163  H          0.36180000       0.45770000       0.08420000
   164  H          0.63820000       0.95770000       0.41580000
   165  C          0.54142000       0.28717000       0.92971500
   166  C          0.45858000       0.78717000       0.57028500
   167  C          0.45858000       0.71283000       0.07028500
   168  C          0.54142000       0.21283000       0.42971500
   169  H          0.49290000       0.25230000       0.90820000
   170  H          0.50710000       0.75230000       0.59180000
   171  H          0.50710000       0.74770000       0.09180000
   172  H          0.49290000       0.24770000       0.40820000
   173  C          0.52182000       0.15557000       0.95702500
   174  C          0.47818000       0.65557000       0.54297500
   175  C          0.47818000       0.84443000       0.04297500
   176  C          0.52182000       0.34443000       0.45702500
   177  C          0.68572000       0.38977000       0.99293500
   178  C          0.31428000       0.88977000       0.50706500
   179  C          0.31428000       0.61023000       0.00706500
   180  C          0.68572000       0.11023000       0.49293500
   181  C          0.75352000       0.43647000       0.02481500
   182  C          0.24648000       0.93647000       0.47518500
   183  C          0.24648000       0.56353000       0.97518500
   184  C          0.75352000       0.06353000       0.52481500
   185  H          0.74200000       0.34750000       0.04250000
   186  H          0.25800000       0.84750000       0.45750000
   187  H          0.25800000       0.65250000       0.95750000
   188  H          0.74200000       0.15250000       0.54250000
   189  Cl         0.43993700       0.69559700       0.16854815
   190  Cl         0.56006300       0.19559700       0.33145185
   191  Cl         0.56006300       0.30440300       0.83145185
   192  Cl         0.43993700       0.80440300       0.66854815
   193  Cl         0.11325800       0.74055800       0.20716916
   194  Cl         0.88674200       0.24055800       0.29283084
   195  Cl         0.88674200       0.25944200       0.79283084
   196  Cl         0.11325800       0.75944200       0.70716916
   197  N          0.62292000       0.31632000       0.17826400
   198  N          0.37708000       0.81632000       0.32173600
   199  N          0.37708000       0.68368000       0.82173600
   200  N          0.62292000       0.18368000       0.67826400
   201  N          0.86725190       0.18232000       0.13501400
   202  N          0.13274810       0.68232000       0.36498600
   203  N          0.13274810       0.81768000       0.86498600
   204  N          0.86725190       0.31768000       0.63501400
   205  N          0.59837190       0.21408000       0.98697600
   206  N          0.40162810       0.71408000       0.51302400
   207  N          0.40162810       0.78592000       0.01302400
   208  N          0.59837190       0.28592000       0.48697600
   209  H          0.59170000       0.13400000       0.00380000
   210  H          0.40830000       0.63400000       0.49620000
   211  H          0.40830000       0.86600000       0.99620000
   212  H          0.59170000       0.36600000       0.50380000
   213  O          0.90107160       0.64764810       0.06240300
   214  O          0.09892840       0.14764810       0.43759700
   215  O          0.09892840       0.35235190       0.93759700
   216  O          0.90107160       0.85235190       0.56240300
   217  O          0.44069170      -0.00376180       0.95438700
   218  O          0.55930830       0.49623820       0.54561300
   219  O          0.55930830       0.00376180       0.04561300
   220  O          0.44069170       0.50376180       0.45438700
