data_QIFJAS02
_symmetry_space_group_name_H-M    'P1'
_symmetry_Int_Tables_number       1
loop_
_symmetry_equiv_pos_site_id
_symmetry_equiv_pos_as_xyz
1 x,y,z
_cell_length_a                   16.31863
_cell_length_b                   7.053201
_cell_length_c                   19.12123
_cell_angle_alpha                90.0
_cell_angle_beta                 105.89401
_cell_angle_gamma                90.0
loop_
_atom_site_label
_atom_site_type_symbol
_atom_site_fract_x
_atom_site_fract_y
_atom_site_fract_z
     1  C          0.89455900       0.39312000       0.09911800
     2  C          0.60544100       0.89312000       0.40088200
     3  C          0.10544100       0.60688000       0.90088200
     4  C          0.39455900       0.10688000       0.59911800
     5  C          0.80743900       0.36572000       0.06988800
     6  C          0.69256100       0.86572000       0.43011200
     7  C          0.19256100       0.63428000       0.93011200
     8  C          0.30743900       0.13428000       0.56988800
     9  C          0.77611890       0.19433000       0.03832900
    10  C          0.72388110       0.69433000       0.46167100
    11  C          0.22388110       0.80567000       0.96167100
    12  C          0.27611890       0.30567000       0.53832900
    13  H          0.71660000       0.17670000       0.01790000
    14  H          0.78340000       0.67670000       0.48210000
    15  H          0.28340000       0.82330000       0.98210000
    16  H          0.21660000       0.32330000       0.51790000
    17  C          0.83257880       0.04922000       0.03689100
    18  C          0.66742120       0.54922000       0.46310900
    19  C          0.16742120       0.95078000       0.96310900
    20  C          0.33257880       0.45078000       0.53689100
    21  H          0.81160000       0.93010000       0.01650000
    22  H          0.68840000       0.43010000       0.48350000
    23  H          0.18840000       0.06990000       0.98350000
    24  H          0.31160000       0.56990000       0.51650000
    25  C          0.91963890       0.07622000       0.06508900
    26  C          0.58036110       0.57622000       0.43491100
    27  C          0.08036110       0.92378000       0.93491100
    28  C          0.41963890       0.42378000       0.56508900
    29  H          0.95750000       0.97500000       0.06330000
    30  H          0.54250000       0.47500000       0.43670000
    31  H          0.04250000       0.02500000       0.93670000
    32  H          0.45750000       0.52500000       0.56330000
    33  C          0.95285900       0.24882000       0.09593800
    34  C          0.54714100       0.74882000       0.40406200
    35  C          0.04714100       0.75118000       0.90406200
    36  C          0.45285900       0.25118000       0.59593800
    37  C          0.09629100       0.11812000       0.14492900
    38  C          0.40370900       0.61812000       0.35507100
    39  C          0.90370900       0.88188000       0.85507100
    40  C          0.59629100       0.38188000       0.64492900
    41  H          0.09450000       0.03970000       0.10160000
    42  H          0.40550000       0.53970000       0.39840000
    43  H          0.90550000       0.96030000       0.89840000
    44  H          0.59450000       0.46030000       0.60160000
    45  H          0.07530000       0.04020000       0.17950000
    46  H          0.42470000       0.54020000       0.32050000
    47  H          0.92470000       0.95980000       0.82050000
    48  H          0.57530000       0.45980000       0.67950000
    49  C          0.18716100       0.18102000       0.18038800
    50  C          0.31283900       0.68102000       0.31961200
    51  C          0.81283900       0.81898000       0.81961200
    52  C          0.68716100       0.31898000       0.68038800
    53  H          0.18880000       0.25850000       0.22390000
    54  H          0.31120000       0.75850000       0.27610000
    55  H          0.81120000       0.74150000       0.77610000
    56  H          0.68880000       0.24150000       0.72390000
    57  H          0.22370000       0.06830000       0.19620000
    58  H          0.27630000       0.56830000       0.30380000
    59  H          0.77630000       0.93170000       0.80380000
    60  H          0.72370000       0.43170000       0.69620000
    61  C          0.16590100       0.45902000       0.10770800
    62  C          0.33409900       0.95902000       0.39229200
    63  C          0.83409900       0.54098000       0.89229200
    64  C          0.66590100       0.04098000       0.60770800
    65  H          0.18680000       0.53460000       0.07250000
    66  H          0.31320000       0.03460000       0.42750000
    67  H          0.81320000       0.46540000       0.92750000
    68  H          0.68680000       0.96540000       0.57250000
    69  H          0.16930000       0.53900000       0.15090000
    70  H          0.33070000       0.03900000       0.34910000
    71  H          0.83070000       0.46100000       0.84910000
    72  H          0.66930000       0.96100000       0.65090000
    73  C          0.07433100       0.40282000       0.07363800
    74  C          0.42566900       0.90282000       0.42636200
    75  C          0.92566900       0.59718000       0.92636200
    76  C          0.57433100       0.09718000       0.57363800
    77  H          0.03880000       0.51830000       0.06110000
    78  H          0.46120000       0.01830000       0.43890000
    79  H          0.96120000       0.48170000       0.93890000
    80  H          0.53880000      -0.01830000       0.56110000
    81  H          0.07020000       0.33170000       0.02810000
    82  H          0.42980000       0.83170000       0.47190000
    83  H          0.92980000       0.66830000       0.97190000
    84  H          0.57020000       0.16830000       0.52810000
    85  C          0.30814100       0.35392000       0.15833800
    86  C          0.19185900       0.85392000       0.34166200
    87  C          0.69185900       0.64608000       0.84166200
    88  C          0.80814100       0.14608000       0.65833800
    89  H          0.31050000       0.44880000       0.19700000
    90  H          0.18950000       0.94880000       0.30300000
    91  H          0.68950000       0.55120000       0.80300000
    92  H          0.81050000       0.05120000       0.69700000
    93  H          0.32660000       0.41750000       0.11900000
    94  H          0.17340000       0.91750000       0.38100000
    95  H          0.67340000       0.58250000       0.88100000
    96  H          0.82660000       0.08250000       0.61900000
    97  C          0.37076100       0.19582000       0.18950800
    98  C          0.12923900       0.69582000       0.31049200
    99  C          0.62923900       0.80418000       0.81049200
   100  C          0.87076100       0.30418000       0.68950800
   101  H          0.35720000       0.14400000       0.23310000
   102  H          0.14280000       0.64400000       0.26690000
   103  H          0.64280000       0.85600000       0.76690000
   104  H          0.85720000       0.35600000       0.73310000
   105  H          0.42880000       0.25020000       0.20530000
   106  H          0.07120000       0.75020000       0.29470000
   107  H          0.57120000       0.74980000       0.79470000
   108  H          0.92880000       0.24980000       0.70530000
   109  C          0.37068100       0.03302000       0.13664800
   110  C          0.12931900       0.53302000       0.36335200
   111  C          0.62931900       0.96698000       0.86335200
   112  C          0.87068100       0.46698000       0.63664800
   113  H          0.31450000       0.96920000       0.12350000
   114  H          0.18550000       0.46920000       0.37650000
   115  H          0.68550000       0.03080000       0.87650000
   116  H          0.81450000       0.53080000       0.62350000
   117  H          0.38150000       0.08270000       0.09160000
   118  H          0.11850000       0.58270000       0.40840000
   119  H          0.61850000       0.91730000       0.90840000
   120  H          0.88150000       0.41730000       0.59160000
   121  C          0.43932100       0.89368000       0.17261800
   122  C          0.06067900       0.39368000       0.32738200
   123  C          0.56067900       0.10632000       0.82738200
   124  C          0.93932100       0.60632000       0.67261800
   125  H          0.49520000       0.95850000       0.18720000
   126  H          0.00480000       0.45850000       0.31280000
   127  H          0.50480000       0.04150000       0.81280000
   128  H         -0.00480000       0.54150000       0.68720000
   129  H          0.42740000       0.84070000       0.21680000
   130  H          0.07260000       0.34070000       0.28320000
   131  H          0.57260000       0.15930000       0.78320000
   132  H          0.92740000       0.65930000       0.71680000
   133  C          0.49884100       0.60238000       0.14673800
   134  C          0.00115900       0.10238000       0.35326200
   135  C          0.50115900       0.39762000       0.85326200
   136  C         -0.00115900       0.89762000       0.64673800
   137  C          0.55562100       0.59818000       0.21721800
   138  C          0.94437900       0.09818000       0.28278200
   139  C          0.44437900       0.40182000       0.78278200
   140  C          0.05562100       0.90182000       0.71721800
   141  H          0.55590000       0.69860000       0.25040000
   142  H          0.94410000       0.19860000       0.24960000
   143  H          0.44410000       0.30140000       0.74960000
   144  H          0.05590000       0.80140000       0.75040000
   145  C          0.61047100       0.44748000       0.23733800
   146  C          0.88952900       0.94748000       0.26266200
   147  C          0.38952900       0.55252000       0.76266200
   148  C          0.11047100       0.05252000       0.73733800
   149  H          0.64850000       0.44500000       0.28480000
   150  H          0.85150000       0.94500000       0.21520000
   151  H          0.35150000       0.55500000       0.71520000
   152  H          0.14850000       0.05500000       0.78480000
   153  C          0.61165900       0.29738000       0.18950800
   154  C          0.88834100       0.79738000       0.31049200
   155  C          0.38834100       0.70262000       0.81049200
   156  C          0.11165900       0.20262000       0.68950800
   157  C          0.66641100       0.13548000       0.20763800
   158  C          0.83358900       0.63548000       0.29236200
   159  C          0.33358900       0.86452000       0.79236200
   160  C          0.16641100       0.36452000       0.70763800
   161  H          0.70630000       0.12850000       0.25420000
   162  H          0.79370000       0.62850000       0.24580000
   163  H          0.29370000       0.87150000       0.74580000
   164  H          0.20630000       0.37150000       0.75420000
   165  C          0.66253100      -0.00712000       0.15990900
   166  C          0.83746900       0.49288000       0.34009100
   167  C          0.33746900       0.00712000       0.84009100
   168  C          0.16253100       0.50712000       0.65990900
   169  H          0.70010000       0.88820000       0.17340000
   170  H          0.79990000       0.38820000       0.32660000
   171  H          0.29990000       0.11180000       0.82660000
   172  H          0.20010000       0.61180000       0.67340000
   173  C          0.60217900      -0.00382000       0.08849800
   174  C          0.89782100       0.49618000       0.41150200
   175  C          0.39782100       0.00382000       0.91150200
   176  C          0.10217900       0.50382000       0.58849800
   177  C          0.55388900       0.30428000       0.11962800
   178  C          0.94611100       0.80428000       0.38037200
   179  C          0.44611100       0.69572000       0.88037200
   180  C          0.05388900       0.19572000       0.61962800
   181  C          0.49794100       0.45638000       0.09823800
   182  C          0.00205900       0.95638000       0.40176200
   183  C          0.50205900       0.54362000       0.90176200
   184  C         -0.00205900       0.04362000       0.59823800
   185  H          0.45960000       0.45960000       0.05080000
   186  H          0.04040000       0.95960000       0.44920000
   187  H          0.54040000       0.54040000       0.94920000
   188  H          0.95960000       0.04040000       0.55080000
   189  Cl         0.93173700       0.60510500       0.14206200
   190  Cl         0.56826300       0.10510500       0.35793800
   191  Cl         0.06826300       0.39489500       0.85793800
   192  Cl         0.43173700       0.89489500       0.64206200
   193  Cl         0.73518700       0.54629600       0.07082200
   194  Cl         0.76481300       0.04629600       0.42917800
   195  Cl         0.26481300       0.45370400       0.92917800
   196  Cl         0.23518700       0.95370400       0.57082200
   197  N          0.04174800       0.28448180       0.12343700
   198  N          0.45825200       0.78448180       0.37656300
   199  N          0.95825200       0.71551820       0.87656300
   200  N          0.54174800       0.21551820       0.62343700
   201  N          0.21963800       0.29204180       0.12916700
   202  N          0.28036200       0.79204180       0.37083300
   203  N          0.78036200       0.70795820       0.87083300
   204  N          0.71963800       0.20795820       0.62916700
   205  N          0.55214800       0.15511820       0.07240700
   206  N          0.94785200       0.65511820       0.42759300
   207  N          0.44785200       0.84488180       0.92759300
   208  N          0.05214800       0.34488180       0.57240700
   209  H          0.51630000       0.16270000       0.02880000
   210  H          0.98370000       0.66270000       0.47120000
   211  H          0.48370000       0.83730000       0.97120000
   212  H          0.01630000       0.33730000       0.52880000
   213  O          0.44130700       0.74403850       0.12222600
   214  O          0.05869300       0.24403850       0.37777400
   215  O          0.55869300       0.25596150       0.87777400
   216  O          0.94130700       0.75596150       0.62222600
   217  O          0.59455700       0.86540840       0.04371600
   218  O          0.90544300       0.36540840       0.45628400
   219  O          0.40544300       0.13459160       0.95628400
   220  O          0.09455700       0.63459160       0.54371600
