data_QIFJAS01
_symmetry_space_group_name_H-M    'P1'
_symmetry_Int_Tables_number       1
loop_
_symmetry_equiv_pos_site_id
_symmetry_equiv_pos_as_xyz
1 x,y,z
_cell_length_a                   13.81503
_cell_length_b                   9.11602
_cell_length_c                   17.59783
_cell_angle_alpha                90.0
_cell_angle_beta                 102.79501
_cell_angle_gamma                90.0
loop_
_atom_site_label
_atom_site_type_symbol
_atom_site_fract_x
_atom_site_fract_y
_atom_site_fract_z
     1  C          0.95395120       0.54166180       0.26179900
     2  C          0.04604880       0.04166180       0.23820100
     3  C          0.04604880       0.45833820       0.73820100
     4  C          0.95395120       0.95833820       0.76179900
     5  C          0.96025130       0.51663190       0.34022100
     6  C          0.03974870       0.01663190       0.15977900
     7  C          0.03974870       0.48336810       0.65977900
     8  C          0.96025130       0.98336810       0.84022100
     9  C          0.88615150       0.44352000       0.36594100
    10  C          0.11384850       0.94352000       0.13405900
    11  C          0.11384850       0.55648000       0.63405900
    12  C          0.88615150       0.05648000       0.86594100
    13  H          0.89170000       0.42530000       0.41990000
    14  H          0.10830000       0.92530000       0.08010000
    15  H          0.10830000       0.57470000       0.58010000
    16  H          0.89170000       0.07470000       0.91990000
    17  C          0.80385140       0.39742000       0.31157110
    18  C          0.19614860       0.89742000       0.18842890
    19  C          0.19614860       0.60258000       0.68842890
    20  C          0.80385140       0.10258000       0.81157110
    21  H          0.75280000       0.34540000       0.32830000
    22  H          0.24720000       0.84540000       0.17170000
    23  H          0.24720000       0.65460000       0.67170000
    24  H          0.75280000       0.15460000       0.82830000
    25  C          0.79441130       0.42572000       0.23280100
    26  C          0.20558870       0.92572000       0.26719900
    27  C          0.20558870       0.57428000       0.76719900
    28  C          0.79441130       0.07428000       0.73280100
    29  H          0.73600000       0.39560000       0.19670000
    30  H          0.26400000       0.89560000       0.30330000
    31  H          0.26400000       0.60440000       0.80330000
    32  H          0.73600000       0.10440000       0.69670000
    33  C          0.86958120       0.49788180       0.20577900
    34  C          0.13041880      -0.00211820       0.29422100
    35  C          0.13041880       0.50211820       0.79422100
    36  C          0.86958120       0.00211820       0.70577900
    37  C          0.79318120       0.43435190       0.07103900
    38  C          0.20681880       0.93435190       0.42896100
    39  C          0.20681880       0.56564810       0.92896100
    40  C          0.79318120       0.06564810       0.57103900
    41  H          0.72510000       0.46690000       0.07210000
    42  H          0.27490000       0.96690000       0.42790000
    43  H          0.27490000       0.53310000       0.92790000
    44  H          0.72510000       0.03310000       0.57210000
    45  H          0.79960000       0.32970000       0.08630000
    46  H          0.20040000       0.82970000       0.41370000
    47  H          0.20040000       0.67030000       0.91370000
    48  H          0.79960000       0.17030000       0.58630000
    49  C          0.81092120       0.45234180       0.98943900
    50  C          0.18907880       0.95234180       0.51056100
    51  C          0.18907880       0.54765820       0.01056100
    52  C          0.81092120       0.04765820       0.48943900
    53  H          0.87840000       0.41720000       0.98820000
    54  H          0.12160000       0.91720000       0.51180000
    55  H          0.12160000       0.58280000       0.01180000
    56  H          0.87840000       0.08280000       0.48820000
    57  H          0.76240000       0.39240000       0.95240000
    58  H          0.23760000       0.89240000       0.54760000
    59  H          0.23760000       0.60760000       0.04760000
    60  H          0.76240000       0.10760000       0.45240000
    61  C          0.87315130       0.69354180       0.02085900
    62  C          0.12684870       0.19354180       0.47914100
    63  C          0.12684870       0.30645820       0.97914100
    64  C          0.87315130       0.80645820       0.52085900
    65  H          0.86730000       0.79810000       0.00520000
    66  H          0.13270000       0.29810000       0.49480000
    67  H          0.13270000       0.20190000      -0.00520000
    68  H          0.86730000       0.70190000       0.50520000
    69  H          0.94110000       0.66020000       0.02000000
    70  H          0.05890000       0.16020000       0.48000000
    71  H          0.05890000       0.33980000       0.98000000
    72  H          0.94110000       0.83980000       0.52000000
    73  C          0.85561130       0.67749180       0.10233900
    74  C          0.14438870       0.17749180       0.39766100
    75  C          0.14438870       0.32250820       0.89766100
    76  C          0.85561130       0.82250820       0.60233900
    77  H          0.90450000       0.73740000       0.13920000
    78  H          0.09550000       0.23740000       0.36080000
    79  H          0.09550000       0.26260000       0.86080000
    80  H          0.90450000       0.76260000       0.63920000
    81  H          0.78830000       0.71300000       0.10360000
    82  H          0.21170000       0.21300000       0.39640000
    83  H          0.21170000       0.28700000       0.89640000
    84  H          0.78830000       0.78700000       0.60360000
    85  C          0.81380120       0.63117190       0.88658900
    86  C          0.18619880       0.13117190       0.61341100
    87  C          0.18619880       0.36882810       0.11341100
    88  C          0.81380120       0.86882810       0.38658900
    89  H          0.88050000       0.59600000       0.88310000
    90  H          0.11950000       0.09600000       0.61690000
    91  H          0.11950000       0.40400000       0.11690000
    92  H          0.88050000       0.90400000       0.38310000
    93  H          0.81100000       0.73790000       0.87600000
    94  H          0.18900000       0.23790000       0.62400000
    95  H          0.18900000       0.26210000       0.12400000
    96  H          0.81100000       0.76210000       0.37600000
    97  C          0.73654130       0.55492000       0.82437900
    98  C          0.26345870       0.05492000       0.67562100
    99  C          0.26345870       0.44508000       0.17562100
   100  C          0.73654130       0.94508000       0.32437900
   101  H          0.67010000       0.56860000       0.83580000
   102  H          0.32990000       0.06860000       0.66420000
   103  H          0.32990000       0.43140000       0.16420000
   104  H          0.67010000       0.93140000       0.33580000
   105  H          0.75070000       0.44840000       0.82530000
   106  H          0.24930000       0.94840000       0.67470000
   107  H          0.24930000       0.55160000       0.17470000
   108  H          0.75070000       0.05160000       0.32530000
   109  C          0.73628130       0.61581190       0.74364900
   110  C          0.26371870       0.11581190       0.75635100
   111  C          0.26371870       0.38418810       0.25635100
   112  C          0.73628130       0.88418810       0.24364900
   113  H          0.70340000       0.71290000       0.73770000
   114  H          0.29660000       0.21290000       0.76230000
   115  H          0.29660000       0.28710000       0.26230000
   116  H          0.70340000       0.78710000       0.23770000
   117  H          0.80560000       0.62940000       0.73830000
   118  H          0.19440000       0.12940000       0.76170000
   119  H          0.19440000       0.37060000       0.26170000
   120  H          0.80560000       0.87060000       0.23830000
   121  C          0.68278120       0.51445190       0.67993900
   122  C          0.31721880       0.01445190       0.82006100
   123  C          0.31721880       0.48554810       0.32006100
   124  C          0.68278120      -0.01445190       0.17993900
   125  H          0.72050000       0.42210000       0.68020000
   126  H          0.27950000       0.92210000       0.81980000
   127  H          0.27950000       0.57790000       0.31980000
   128  H          0.72050000       0.07790000       0.18020000
   129  H          0.61600000       0.49030000       0.68810000
   130  H          0.38400000      -0.00970000       0.81190000
   131  H          0.38400000       0.50970000       0.31190000
   132  H          0.61600000       0.00970000       0.18810000
   133  C          0.64237110       0.51295180       0.53994900
   134  C          0.35762890       0.01295180       0.96005100
   135  C          0.35762890       0.48704820       0.46005100
   136  C          0.64237110      -0.01295180       0.03994900
   137  C          0.64790120       0.58962180       0.47163900
   138  C          0.35209880       0.08962180       0.02836100
   139  C          0.35209880       0.41037820       0.52836100
   140  C          0.64790120       0.91037820       0.97163900
   141  H          0.67280000       0.68710000       0.47460000
   142  H          0.32720000       0.18710000       0.02540000
   143  H          0.32720000       0.31290000       0.52540000
   144  H          0.67280000       0.81290000       0.97460000
   145  C          0.61709120       0.52229190       0.40083900
   146  C          0.38290880       0.02229190       0.09916100
   147  C          0.38290880       0.47770810       0.59916100
   148  C          0.61709120       0.97770810       0.90083900
   149  H          0.62170000       0.57380000       0.35480000
   150  H          0.37830000       0.07380000       0.14520000
   151  H          0.37830000       0.42620000       0.64520000
   152  H          0.62170000       0.92620000       0.85480000
   153  C          0.57881110       0.37866180       0.39460900
   154  C          0.42118890       0.87866180       0.10539100
   155  C          0.42118890       0.62133820       0.60539100
   156  C          0.57881110       0.12133820       0.89460900
   157  C          0.54457120       0.30174190       0.32296900
   158  C          0.45542880       0.80174190       0.17703100
   159  C          0.45542880       0.69825810       0.67703100
   160  C          0.54457120       0.19825810       0.82296900
   161  H          0.54840000       0.34780000       0.27530000
   162  H          0.45160000       0.84780000       0.22470000
   163  H          0.45160000       0.65220000       0.72470000
   164  H          0.54840000       0.15220000       0.77530000
   165  C          0.50682130       0.16492190       0.32161100
   166  C          0.49317870       0.66492190       0.17838900
   167  C          0.49317870       0.83507810       0.67838900
   168  C          0.50682130       0.33507810       0.82161100
   169  H          0.48430000       0.11710000       0.27290000
   170  H          0.51570000       0.61710000       0.22710000
   171  H          0.51570000       0.88290000       0.72710000
   172  H          0.48430000       0.38290000       0.77290000
   173  C          0.49986120       0.08950190       0.39225100
   174  C          0.50013880       0.58950190       0.10774900
   175  C          0.50013880       0.91049810       0.60774900
   176  C          0.49986120       0.41049810       0.89225100
   177  C          0.57314110       0.30572170       0.46373900
   178  C          0.42685890       0.80572170       0.03626100
   179  C          0.42685890       0.69427830       0.53626100
   180  C          0.57314110       0.19427830       0.96373900
   181  C          0.60567110       0.37169180       0.53671900
   182  C          0.39432890       0.87169180       0.96328100
   183  C          0.39432890       0.62830820       0.46328100
   184  C          0.60567110       0.12830820       0.03671900
   185  H          0.60260000       0.32030000       0.58310000
   186  H          0.39740000       0.82030000       0.91690000
   187  H          0.39740000       0.67970000       0.41690000
   188  H          0.60260000       0.17970000       0.08310000
   189  Cl         0.05279300       0.62380500       0.23267200
   190  Cl         0.94720700       0.12380500       0.26732800
   191  Cl         0.94720700       0.37619500       0.76732800
   192  Cl         0.05279300       0.87619500       0.73267200
   193  Cl         0.06411400       0.57439600       0.40877300
   194  Cl         0.93588600       0.07439600       0.09122700
   195  Cl         0.93588600       0.42560400       0.59122700
   196  Cl         0.06411400       0.92560400       0.90877300
   197  N          0.86565900       0.52185150       0.12600700
   198  N          0.13434100       0.02185150       0.37399300
   199  N          0.13434100       0.47814850       0.87399300
   200  N          0.86565900       0.97814850       0.62600700
   201  N          0.80080100       0.60666150       0.96580800
   202  N          0.19919900       0.10666150       0.53419200
   203  N          0.19919900       0.39333850       0.03419200
   204  N          0.80080100       0.89333850       0.46580800
   205  N          0.53426100       0.16544150       0.45976800
   206  N          0.46573900       0.66544150       0.04023200
   207  N          0.46573900       0.83455850       0.54023200
   208  N          0.53426100       0.33455850       0.95976800
   209  H          0.53150000       0.12200000       0.50390000
   210  H          0.46850000       0.62200000      -0.00390000
   211  H          0.46850000       0.87800000       0.49610000
   212  H          0.53150000       0.37800000       0.00390000
   213  O          0.67470900       0.58931130       0.60716600
   214  O          0.32529100       0.08931130       0.89283400
   215  O          0.32529100       0.41068870       0.39283400
   216  O          0.67470900       0.91068870       0.10716600
   217  O          0.46599900       0.96269870       0.39380700
   218  O          0.53400100       0.46269870       0.10619300
   219  O          0.53400100       0.03730130       0.60619300
   220  O          0.46599900       0.53730130       0.89380700
