data_QIMKIG02
_symmetry_space_group_name_H-M    'P1'
_symmetry_Int_Tables_number       1
loop_
_symmetry_equiv_pos_site_id
_symmetry_equiv_pos_as_xyz
1 x,y,z
_cell_length_a                   14.537616
_cell_length_b                   6.63296
_cell_length_c                   9.83439
_cell_angle_alpha                90.0
_cell_angle_beta                 105.9225
_cell_angle_gamma                90.0
loop_
_atom_site_label
_atom_site_type_symbol
_atom_site_fract_x
_atom_site_fract_y
_atom_site_fract_z
     1  C          0.10437130       0.26983000       0.47078190
     2  C          0.89562870       0.76983000       0.02921810
     3  C          0.89562870       0.73017000       0.52921810
     4  C          0.10437130       0.23017000       0.97078190
     5  C          0.17104120       0.11893000       0.56450180
     6  C          0.82895880       0.61893000       0.93549820
     7  C          0.82895880       0.88107000       0.43549820
     8  C          0.17104120       0.38107000       0.06450180
     9  H          0.13290000       0.02300000       0.60390000
    10  H          0.86710000       0.52300000       0.89610000
    11  H          0.86710000       0.97700000       0.39610000
    12  H          0.13290000       0.47700000       0.10390000
    13  H          0.21480000       0.19120000       0.64460000
    14  H          0.78520000       0.69120000       0.85540000
    15  H          0.78520000       0.80880000       0.35540000
    16  H          0.21480000       0.30880000       0.14460000
    17  C          0.16677120       0.92567000       0.34216180
    18  C          0.83322880       0.42567000       0.15783820
    19  C          0.83322880       0.07433000       0.65783820
    20  C          0.16677120       0.57433000       0.84216180
    21  H          0.14560000       0.04350000       0.27960000
    22  H          0.85440000       0.54350000       0.22040000
    23  H          0.85440000       0.95650000       0.72040000
    24  H          0.14560000       0.45650000       0.77960000
    25  H          0.20530000       0.83850000       0.29710000
    26  H          0.79470000       0.33850000       0.20290000
    27  H          0.79470000       0.16150000       0.70290000
    28  H          0.20530000       0.66150000       0.79710000
    29  C          0.23067120       0.00013000       0.48329180
    30  C          0.76932880       0.50013000       0.01670820
    31  C          0.76932880      -0.00013000       0.51670820
    32  C          0.23067120       0.49987000       0.98329180
    33  C          0.28098120       0.82147000       0.57268180
    34  C          0.71901880       0.32147000       0.92731820
    35  C          0.71901880       0.17853000       0.42731820
    36  C          0.28098120       0.67853000       0.07268180
    37  H          0.23250000       0.73680000       0.59900000
    38  H          0.76750000       0.23680000       0.90100000
    39  H          0.76750000       0.26320000       0.40100000
    40  H          0.23250000       0.76320000       0.09900000
    41  H          0.31240000       0.73790000       0.51500000
    42  H          0.68760000       0.23790000       0.98500000
    43  H          0.68760000       0.26210000       0.48500000
    44  H          0.31240000       0.76210000       0.01500000
    45  C          0.35531130       0.88727000       0.70615190
    46  C          0.64468870       0.38727000       0.79384810
    47  C          0.64468870       0.11273000       0.29384810
    48  C          0.35531130       0.61273000       0.20615190
    49  H          0.32370000       0.96310000       0.76750000
    50  H          0.67630000       0.46310000       0.73250000
    51  H          0.67630000       0.03690000       0.23250000
    52  H          0.32370000       0.53690000       0.26750000
    53  H          0.38610000       0.76690000       0.75880000
    54  H          0.61390000       0.26690000       0.74120000
    55  H          0.61390000       0.23310000       0.24120000
    56  H          0.38610000       0.73310000       0.25880000
    57  C          0.43075130       0.01923000       0.67082000
    58  C          0.56924870       0.51923000       0.82918000
    59  C          0.56924870      -0.01923000       0.32918000
    60  C          0.43075130       0.48077000       0.17082000
    61  H          0.46780000       0.93800000       0.61980000
    62  H          0.53220000       0.43800000       0.88020000
    63  H          0.53220000       0.06200000       0.38020000
    64  H          0.46780000       0.56200000       0.11980000
    65  H          0.47550000       0.06850000       0.75950000
    66  H          0.52450000       0.56850000       0.74050000
    67  H          0.52450000       0.93150000       0.24050000
    68  H          0.47550000       0.43150000       0.25950000
    69  C          0.38609120       0.19833000       0.57992000
    70  C          0.61390880       0.69833000       0.92008000
    71  C          0.61390880       0.80167000       0.42008000
    72  C          0.38609120       0.30167000       0.07992000
    73  H          0.43650000       0.27200000       0.55010000
    74  H          0.56350000       0.77200000       0.94990000
    75  H          0.56350000       0.72800000       0.44990000
    76  H          0.43650000       0.22800000       0.05010000
    77  H          0.35850000       0.29150000       0.63690000
    78  H          0.64150000       0.79150000       0.86310000
    79  H          0.64150000       0.70850000       0.36310000
    80  H          0.35850000       0.20850000       0.13690000
    81  C          0.30796120       0.13403000       0.44909190
    82  C          0.69203880       0.63403000       0.05090810
    83  C          0.69203880       0.86597000       0.55090810
    84  C          0.30796120       0.36597000       0.94909190
    85  H          0.33770000       0.05960000       0.38480000
    86  H          0.66230000       0.55960000       0.11520000
    87  H          0.66230000       0.94040000       0.61520000
    88  H          0.33770000       0.44040000       0.88480000
    89  H          0.27710000       0.25610000       0.39870000
    90  H          0.72290000       0.75610000       0.10130000
    91  H          0.72290000       0.74390000       0.60130000
    92  H          0.27710000       0.24390000       0.89870000
    93  N          0.08083100       0.81128000       0.35151150
    94  N          0.91916900       0.31128000       0.14848850
    95  N          0.91916900       0.18872000       0.64848850
    96  N          0.08083100       0.68872000       0.85151150
    97  H          0.04380000       0.89100000       0.39040000
    98  H          0.95620000       0.39100000       0.10960000
    99  H          0.95620000       0.10900000       0.60960000
   100  H          0.04380000       0.60900000       0.89040000
   101  H          0.09940000       0.70020000       0.40650000
   102  H          0.90060000       0.20020000       0.09350000
   103  H          0.90060000       0.29980000       0.59350000
   104  H          0.09940000       0.79980000       0.90650000
   105  H          0.04670000       0.77260000       0.26330000
   106  H          0.95330000       0.27260000       0.23670000
   107  H          0.95330000       0.22740000       0.73670000
   108  H          0.04670000       0.72740000       0.76330000
   109  O          0.01899800       0.21326190       0.41666130
   110  O          0.98100200       0.71326190       0.08333870
   111  O          0.98100200       0.78673810       0.58333870
   112  O          0.01899800       0.28673810       0.91666130
   113  O          0.13809100       0.43452000       0.44863170
   114  O          0.86190900       0.93452000       0.05136830
   115  O          0.86190900       0.56548000       0.55136830
   116  O          0.13809100       0.06548000       0.94863170
