data_QIMKIG03
_symmetry_space_group_name_H-M    'P1'
_symmetry_Int_Tables_number       1
loop_
_symmetry_equiv_pos_site_id
_symmetry_equiv_pos_as_xyz
1 x,y,z
_cell_length_a                   30.545211
_cell_length_b                   5.92682
_cell_length_c                   10.88414
_cell_angle_alpha                90.0
_cell_angle_beta                 108.3162
_cell_angle_gamma                90.0
loop_
_atom_site_label
_atom_site_type_symbol
_atom_site_fract_x
_atom_site_fract_y
_atom_site_fract_z
     1  C          0.36190500       0.21763000       0.72157140
     2  C          0.86190500       0.71763000       0.72157140
     3  C          0.63809500       0.21763000       0.77842860
     4  C          0.13809500       0.71763000       0.77842860
     5  C          0.63809500       0.78237000       0.27842860
     6  C          0.13809500       0.28237000       0.27842860
     7  C          0.36190500       0.78237000       0.22157140
     8  C          0.86190500       0.28237000       0.22157140
     9  C          0.30226500       0.26393000       0.48949140
    10  C          0.80226500       0.76393000       0.48949140
    11  C          0.69773500       0.26393000       0.01050860
    12  C          0.19773500       0.76393000       0.01050860
    13  C          0.69773500       0.73607000       0.51050860
    14  C          0.19773500       0.23607000       0.51050860
    15  C          0.30226500       0.73607000      -0.01050860
    16  C          0.80226500       0.23607000      -0.01050860
    17  C          0.32851600       0.10963000       0.59961140
    18  C          0.82851600       0.60963000       0.59961140
    19  C          0.67148400       0.10963000       0.90038860
    20  C          0.17148400       0.60963000       0.90038860
    21  C          0.67148400       0.89037000       0.40038860
    22  C          0.17148400       0.39037000       0.40038860
    23  C          0.32851600       0.89037000       0.09961140
    24  C          0.82851600       0.39037000       0.09961140
    25  H          0.34630000       0.00140000       0.56480000
    26  H          0.84630000       0.50140000       0.56480000
    27  H          0.65370000       0.00140000       0.93520000
    28  H          0.15370000       0.50140000       0.93520000
    29  H          0.65370000      -0.00140000       0.43520000
    30  H          0.15370000       0.49860000       0.43520000
    31  H          0.34630000      -0.00140000       0.06480000
    32  H          0.84630000       0.49860000       0.06480000
    33  H          0.30560000       0.02100000       0.62650000
    34  H          0.80560000       0.52100000       0.62650000
    35  H          0.69440000       0.02100000       0.87350000
    36  H          0.19440000       0.52100000       0.87350000
    37  H          0.69440000      -0.02100000       0.37350000
    38  H          0.19440000       0.47900000       0.37350000
    39  H          0.30560000      -0.02100000       0.12650000
    40  H          0.80560000       0.47900000       0.12650000
    41  C          0.33683500       0.37083000       0.79133150
    42  C          0.83683500       0.87083000       0.79133150
    43  C          0.66316500       0.37083000       0.70866850
    44  C          0.16316500       0.87083000       0.70866850
    45  C          0.66316500       0.62917000       0.20866850
    46  C          0.16316500       0.12917000       0.20866850
    47  C          0.33683500       0.62917000       0.29133150
    48  C          0.83683500       0.12917000       0.29133150
    49  H          0.35870000       0.41230000       0.87670000
    50  H          0.85870000       0.91230000       0.87670000
    51  H          0.64130000       0.41230000       0.62330000
    52  H          0.14130000       0.91230000       0.62330000
    53  H          0.64130000       0.58770000       0.12330000
    54  H          0.14130000       0.08770000       0.12330000
    55  H          0.35870000       0.58770000       0.37670000
    56  H          0.85870000       0.08770000       0.37670000
    57  H          0.32790000       0.51150000       0.74060000
    58  H          0.82790000       0.01150000       0.74060000
    59  H          0.67210000       0.51150000       0.75940000
    60  H          0.17210000       0.01150000       0.75940000
    61  H          0.67210000       0.48850000       0.25940000
    62  H          0.17210000      -0.01150000       0.25940000
    63  H          0.32790000       0.48850000       0.24060000
    64  H          0.82790000      -0.01150000       0.24060000
    65  C          0.39772600       0.36213000       0.68455180
    66  C          0.89772600       0.86213000       0.68455180
    67  C          0.60227400       0.36213000       0.81544820
    68  C          0.10227400       0.86213000       0.81544820
    69  C          0.60227400       0.63787000       0.31544820
    70  C          0.10227400       0.13787000       0.31544820
    71  C          0.39772600       0.63787000       0.18455180
    72  C          0.89772600       0.13787000       0.18455180
    73  H          0.41010000       0.27360000       0.62570000
    74  H          0.91010000       0.77360000       0.62570000
    75  H          0.58990000       0.27360000       0.87430000
    76  H          0.08990000       0.77360000       0.87430000
    77  H          0.58990000       0.72640000       0.37430000
    78  H          0.08990000       0.22640000       0.37430000
    79  H          0.41010000       0.72640000       0.12570000
    80  H          0.91010000       0.22640000       0.12570000
    81  H          0.38210000       0.49660000       0.63650000
    82  H          0.88210000      -0.00340000       0.63650000
    83  H          0.61790000       0.49660000       0.86350000
    84  H          0.11790000      -0.00340000       0.86350000
    85  H          0.61790000       0.50340000       0.36350000
    86  H          0.11790000       0.00340000       0.36350000
    87  H          0.38210000       0.50340000       0.13650000
    88  H          0.88210000       0.00340000       0.13650000
    89  C          0.38743600       0.02473000       0.81054160
    90  C          0.88743600       0.52473000       0.81054160
    91  C          0.61256400       0.02473000       0.68945840
    92  C          0.11256400       0.52473000       0.68945840
    93  C          0.61256400       0.97527000       0.18945840
    94  C          0.11256400       0.47527000       0.18945840
    95  C          0.38743600       0.97527000       0.31054160
    96  C          0.88743600       0.47527000       0.31054160
    97  H          0.36510000       0.94270000       0.84320000
    98  H          0.86510000       0.44270000       0.84320000
    99  H          0.63490000       0.94270000       0.65680000
   100  H          0.13490000       0.44270000       0.65680000
   101  H          0.63490000       0.05730000       0.15680000
   102  H          0.13490000       0.55730000       0.15680000
   103  H          0.36510000       0.05730000       0.34320000
   104  H          0.86510000       0.55730000       0.34320000
   105  H          0.39910000       0.91730000       0.75860000
   106  H          0.89910000       0.41730000       0.75860000
   107  H          0.60090000       0.91730000       0.74140000
   108  H          0.10090000       0.41730000       0.74140000
   109  H          0.60090000       0.08270000       0.24140000
   110  H          0.10090000       0.58270000       0.24140000
   111  H          0.39910000       0.08270000       0.25860000
   112  H          0.89910000       0.58270000       0.25860000
   113  C          0.43791700       0.43974000       0.80042000
   114  C          0.93791700       0.93974000       0.80042000
   115  C          0.56208300       0.43974000       0.69958000
   116  C          0.06208300       0.93974000       0.69958000
   117  C          0.56208300       0.56026000       0.19958000
   118  C          0.06208300       0.06026000       0.19958000
   119  C          0.43791700       0.56026000       0.30042000
   120  C          0.93791700       0.06026000       0.30042000
   121  H          0.46040000       0.52300000       0.76910000
   122  H          0.96040000       0.02300000       0.76910000
   123  H          0.53960000       0.52300000       0.73090000
   124  H          0.03960000       0.02300000       0.73090000
   125  H          0.53960000       0.47700000       0.23090000
   126  H          0.03960000      -0.02300000       0.23090000
   127  H          0.46040000       0.47700000       0.26910000
   128  H          0.96040000      -0.02300000       0.26910000
   129  H          0.42630000       0.54390000       0.85420000
   130  H          0.92630000       0.04390000       0.85420000
   131  H          0.57370000       0.54390000       0.64580000
   132  H          0.07370000       0.04390000       0.64580000
   133  H          0.57370000       0.45610000       0.14580000
   134  H          0.07370000       0.95610000       0.14580000
   135  H          0.42630000       0.45610000       0.35420000
   136  H          0.92630000       0.95610000       0.35420000
   137  C          0.46176700       0.24094000       0.88232000
   138  C          0.96176700       0.74094000       0.88232000
   139  C          0.53823300       0.24094000       0.61768000
   140  C          0.03823300       0.74094000       0.61768000
   141  C          0.53823300       0.75906000       0.11768000
   142  C          0.03823300       0.25906000       0.11768000
   143  C          0.46176700       0.75906000       0.38232000
   144  C          0.96176700       0.25906000       0.38232000
   145  H          0.47630000       0.14510000       0.83140000
   146  H          0.97630000       0.64510000       0.83140000
   147  H          0.52370000       0.14510000       0.66860000
   148  H          0.02370000       0.64510000       0.66860000
   149  H          0.52370000       0.85490000       0.16860000
   150  H          0.02370000       0.35490000       0.16860000
   151  H          0.47630000       0.85490000       0.33140000
   152  H          0.97630000       0.35490000       0.33140000
   153  H          0.48640000       0.29680000       0.95920000
   154  H          0.98640000       0.79680000       0.95920000
   155  H          0.51360000       0.29680000       0.54080000
   156  H          0.01360000       0.79680000       0.54080000
   157  H          0.51360000       0.70320000       0.04080000
   158  H          0.01360000       0.20320000       0.04080000
   159  H          0.48640000       0.70320000       0.45920000
   160  H          0.98640000       0.20320000       0.45920000
   161  C          0.42760700       0.10154000       0.92549180
   162  C          0.92760700       0.60154000       0.92549180
   163  C          0.57239300       0.10154000       0.57450820
   164  C          0.07239300       0.60154000       0.57450820
   165  C          0.57239300       0.89846000       0.07450820
   166  C          0.07239300       0.39846000       0.07450820
   167  C          0.42760700       0.89846000       0.42549180
   168  C          0.92760700       0.39846000       0.42549180
   169  H          0.41570000       0.19250000       0.98450000
   170  H          0.91570000       0.69250000       0.98450000
   171  H          0.58430000       0.19250000       0.51550000
   172  H          0.08430000       0.69250000       0.51550000
   173  H          0.58430000       0.80750000       0.01550000
   174  H          0.08430000       0.30750000       0.01550000
   175  H          0.41570000       0.80750000       0.48450000
   176  H          0.91570000       0.30750000       0.48450000
   177  H          0.44350000       0.96780000       0.97390000
   178  H          0.94350000       0.46780000       0.97390000
   179  H          0.55650000       0.96780000       0.52610000
   180  H          0.05650000       0.46780000       0.52610000
   181  H          0.55650000       0.03220000       0.02610000
   182  H          0.05650000       0.53220000       0.02610000
   183  H          0.44350000       0.03220000       0.47390000
   184  H          0.94350000       0.53220000       0.47390000
   185  N          0.29507400       0.27172000       0.81185120
   186  N          0.79507400       0.77172000       0.81185120
   187  N          0.70492600       0.27172000       0.68814880
   188  N          0.20492600       0.77172000       0.68814880
   189  N          0.70492600       0.72828000       0.18814880
   190  N          0.20492600       0.22828000       0.18814880
   191  N          0.29507400       0.72828000       0.31185120
   192  N          0.79507400       0.22828000       0.31185120
   193  H          0.27110000       0.27930000       0.73690000
   194  H          0.77110000       0.77930000       0.73690000
   195  H          0.72890000       0.27930000       0.76310000
   196  H          0.22890000       0.77930000       0.76310000
   197  H          0.72890000       0.72070000       0.26310000
   198  H          0.22890000       0.22070000       0.26310000
   199  H          0.27110000       0.72070000       0.23690000
   200  H          0.77110000       0.22070000       0.23690000
   201  H          0.28790000       0.35010000       0.87480000
   202  H          0.78790000       0.85010000       0.87480000
   203  H          0.71210000       0.35010000       0.62520000
   204  H          0.21210000       0.85010000       0.62520000
   205  H          0.71210000       0.64990000       0.12520000
   206  H          0.21210000       0.14990000       0.12520000
   207  H          0.28790000       0.64990000       0.37480000
   208  H          0.78790000       0.14990000       0.37480000
   209  H          0.30060000       0.12490000       0.83640000
   210  H          0.80060000       0.62490000       0.83640000
   211  H          0.69940000       0.12490000       0.66360000
   212  H          0.19940000       0.62490000       0.66360000
   213  H          0.69940000       0.87510000       0.16360000
   214  H          0.19940000       0.37510000       0.16360000
   215  H          0.30060000       0.87510000       0.33640000
   216  H          0.80060000       0.37510000       0.33640000
   217  O          0.29105400       0.18052000       0.37705100
   218  O          0.79105400       0.68052000       0.37705100
   219  O          0.70894600       0.18052000       0.12294900
   220  O          0.20894600       0.68052000       0.12294900
   221  O          0.70894600       0.81948000       0.62294900
   222  O          0.20894600       0.31948000       0.62294900
   223  O          0.29105400       0.81948000       0.87705100
   224  O          0.79105400       0.31948000       0.87705100
   225  O          0.29272400       0.45962000       0.51366110
   226  O          0.79272400       0.95962000       0.51366110
   227  O          0.70727600       0.45962000       0.98633890
   228  O          0.20727600       0.95962000       0.98633890
   229  O          0.70727600       0.54038000       0.48633890
   230  O          0.20727600       0.04038000       0.48633890
   231  O          0.29272400       0.54038000       0.01366110
   232  O          0.79272400       0.04038000       0.01366110
