data_QIMKIG
_symmetry_space_group_name_H-M    'P1'
_symmetry_Int_Tables_number       1
loop_
_symmetry_equiv_pos_site_id
_symmetry_equiv_pos_as_xyz
1 x,y,z
_cell_length_a                   5.87596
_cell_length_b                   6.91987
_cell_length_c                   22.2622
_cell_angle_alpha                90.0
_cell_angle_beta                 90.0802
_cell_angle_gamma                90.0
loop_
_atom_site_label
_atom_site_type_symbol
_atom_site_fract_x
_atom_site_fract_y
_atom_site_fract_z
     1  O          0.32783160       0.22232140       0.47786500
     2  O          0.67216840       0.72232140       0.02213500
     3  O          0.67216840       0.77767860       0.52213500
     4  O          0.32783160       0.27767860       0.97786500
     5  O          0.03209160       0.32934150       0.42512500
     6  O          0.96790840       0.82934150       0.07487500
     7  O          0.96790840       0.67065850       0.57487500
     8  O          0.03209160       0.17065850       0.92512500
     9  N          0.22482000       0.83466180       0.48502600
    10  N          0.77518000       0.33466180       0.01497400
    11  N          0.77518000       0.16533820       0.51497400
    12  N          0.22482000       0.66533820       0.98502600
    13  H          0.36830000       0.78620000       0.49218000
    14  H          0.63170000       0.28620000       0.00782000
    15  H          0.63170000       0.21380000       0.50782000
    16  H          0.36830000       0.71380000       0.99218000
    17  H          0.12830000       0.80130000       0.51569000
    18  H          0.87170000       0.30130000       0.98431000
    19  H          0.87170000       0.19870000       0.48431000
    20  H          0.12830000       0.69870000       0.01569000
    21  H          0.23830000       0.97330000       0.48588000
    22  H          0.76170000       0.47330000       0.01412000
    23  H          0.76170000       0.02670000       0.51412000
    24  H          0.23830000       0.52670000       0.98588000
    25  C          0.29462000       0.67267190       0.38403600
    26  C          0.70538000       0.17267190       0.11596400
    27  C          0.70538000       0.32732810       0.61596400
    28  C          0.29462000       0.82732810       0.88403600
    29  C          0.16902000       0.61982000       0.32528700
    30  C          0.83098000       0.11982000       0.17471300
    31  C          0.83098000       0.38018000       0.67471300
    32  C          0.16902000       0.88018000       0.82528700
    33  H          0.27020000       0.53420000       0.30247000
    34  H          0.72980000       0.03420000       0.19753000
    35  H          0.72980000       0.46580000       0.69753000
    36  H          0.27020000       0.96580000       0.80247000
    37  H          0.03030000       0.54720000       0.33547000
    38  H          0.96970000       0.04720000       0.16453000
    39  H          0.96970000       0.45280000       0.66453000
    40  H          0.03030000       0.95280000       0.83547000
    41  C          0.11222000       0.79312000       0.28509700
    42  C          0.88778000       0.29312000       0.21490300
    43  C          0.88778000       0.20688000       0.71490300
    44  C          0.11222000       0.70688000       0.78509700
    45  H          0.04230000       0.74620000       0.24689000
    46  H          0.95770000       0.24620000       0.25311000
    47  H          0.95770000       0.25380000       0.75311000
    48  H          0.04230000       0.75380000       0.74689000
    49  H         -0.00230000       0.87720000       0.30547000
    50  H          0.00230000       0.37720000       0.19453000
    51  H          0.00230000       0.12280000       0.69453000
    52  H         -0.00230000       0.62280000       0.80547000
    53  C          0.32372000       0.91412000       0.27181700
    54  C          0.67628000       0.41412000       0.22818300
    55  C          0.67628000       0.08588000       0.72818300
    56  C          0.32372000       0.58588000       0.77181700
    57  H          0.43820000       0.83620000       0.24757000
    58  H          0.56180000       0.33620000       0.25243000
    59  H          0.56180000       0.16380000       0.75243000
    60  H          0.43820000       0.66380000       0.74757000
    61  H          0.28530000       0.03120000       0.24658000
    62  H          0.71470000       0.53120000       0.25342000
    63  H          0.71470000       0.96880000       0.75342000
    64  H          0.28530000       0.46880000       0.74658000
    65  C          0.43632000       0.97982000       0.33004700
    66  C          0.56368000       0.47982000       0.16995300
    67  C          0.56368000       0.02018000       0.66995300
    68  C          0.43632000       0.52018000       0.83004700
    69  H          0.57720000       0.05120000       0.32217000
    70  H          0.42280000       0.55120000       0.17783000
    71  H          0.42280000       0.94880000       0.67783000
    72  H          0.57720000       0.44880000       0.82217000
    73  H          0.33630000       0.07120000       0.35218000
    74  H          0.66370000       0.57120000       0.14782000
    75  H          0.66370000       0.92880000       0.64782000
    76  H          0.33630000       0.42880000       0.85218000
    77  C          0.49842000       0.80742000       0.36947700
    78  C          0.50158000       0.30742000       0.13052300
    79  C          0.50158000       0.19258000       0.63052300
    80  C          0.49842000       0.69258000       0.86947700
    81  H          0.56920000       0.85120000       0.40787000
    82  H          0.43080000       0.35120000       0.09213000
    83  H          0.43080000       0.14880000       0.59213000
    84  H          0.56920000       0.64880000       0.90787000
    85  H          0.61820000       0.73020000       0.34817000
    86  H          0.38180000       0.23020000       0.15183000
    87  H          0.38180000       0.26980000       0.65183000
    88  H          0.61820000       0.76980000       0.84817000
    89  C          0.12402000       0.77112000       0.42632600
    90  C          0.87598000       0.27112000       0.07367400
    91  C          0.87598000       0.22888000       0.57367400
    92  C          0.12402000       0.72888000       0.92632600
    93  H          0.06120000       0.88620000       0.40767000
    94  H          0.93880000       0.38620000       0.09233000
    95  H          0.93880000       0.11380000       0.59233000
    96  H          0.06120000       0.61380000       0.90767000
    97  H          0.00030000       0.68620000       0.43397000
    98  H         -0.00030000       0.18620000       0.06603000
    99  H         -0.00030000       0.31380000       0.56603000
   100  H          0.00030000       0.81380000       0.93397000
   101  C          0.39562000       0.49002000       0.41369600
   102  C          0.60438000      -0.00998000       0.08630400
   103  C          0.60438000       0.50998000       0.58630400
   104  C          0.39562000       0.00998000       0.91369600
   105  H          0.48620000       0.42520000       0.38277000
   106  H          0.51380000       0.92520000       0.11723000
   107  H          0.51380000       0.57480000       0.61723000
   108  H          0.48620000       0.07480000       0.88277000
   109  H          0.50620000       0.52520000       0.44497000
   110  H          0.49380000       0.02520000       0.05503000
   111  H          0.49380000       0.47480000       0.55503000
   112  H          0.50620000       0.97480000       0.94497000
   113  C          0.23682000       0.33823190       0.44058600
   114  C          0.76318000       0.83823190       0.05941400
   115  C          0.76318000       0.66176810       0.55941400
   116  C          0.23682000       0.16176810       0.94058600
