data_QNACRD02
_symmetry_space_group_name_H-M    'P1'
_symmetry_Int_Tables_number       1
loop_
_symmetry_equiv_pos_site_id
_symmetry_equiv_pos_as_xyz
1 x,y,z
_cell_length_a                   13.761
_cell_length_b                   3.895
_cell_length_c                   13.439
_cell_angle_alpha                90.0
_cell_angle_beta                 100.33
_cell_angle_gamma                90.0
loop_
_atom_site_label
_atom_site_type_symbol
_atom_site_fract_x
_atom_site_fract_y
_atom_site_fract_z
     1  C          0.41894000       0.17551400       0.52584000
     2  C          0.58106000       0.67551400       0.97416000
     3  C          0.58106000       0.82448600       0.47416000
     4  C          0.41894000       0.32448600       0.02584000
     5  C          0.25544000       0.45691500       0.47104000
     6  C          0.74456000       0.95691500       0.02896000
     7  C          0.74456000       0.54308500       0.52896000
     8  C          0.25544000       0.04308500       0.97104000
     9  N          0.34873000       0.23051200       0.34863000
    10  N          0.65127000       0.73051200       0.15137000
    11  N          0.65127000       0.76948800       0.65137000
    12  N          0.34873000       0.26948800       0.84863000
    13  C          0.42264000       0.11781400       0.42354000
    14  C          0.57736000       0.61781400       0.07646000
    15  C          0.57736000       0.88218600       0.57646000
    16  C          0.42264000       0.38218600       0.92354000
    17  C          0.49574000       0.06041500       0.60204000
    18  C          0.50426000       0.56041500       0.89796000
    19  C          0.50426000       0.93958500       0.39796000
    20  C          0.49574000       0.43958500       0.10204000
    21  C          0.26644000       0.39471600       0.37044000
    22  C          0.73356000       0.89471600       0.12956000
    23  C          0.73356000       0.60528400       0.62956000
    24  C          0.26644000       0.10528400       0.87044000
    25  C          0.33304000       0.35901500       0.55444000
    26  C          0.66696000       0.85901500       0.94556000
    27  C          0.66696000       0.64098500       0.44556000
    28  C          0.33304000       0.14098500       0.05444000
    29  C          0.19124000       0.49511500       0.28935000
    30  C          0.80876000      -0.00488500       0.21065000
    31  C          0.80876000       0.50488500       0.71065000
    32  C          0.19124000       0.00488500       0.78935000
    33  C          0.09505000       0.70961800       0.40905000
    34  C          0.90495000       0.20961800       0.09095000
    35  C          0.90495000       0.29038200       0.59095000
    36  C          0.09505000       0.79038200       0.90905000
    37  O          0.32883000       0.42271300       0.64403000
    38  O          0.67117000       0.92271300       0.85597000
    39  O          0.67117000       0.57728700       0.35597000
    40  O          0.32883000       0.07728700       0.14403000
    41  C          0.10945000       0.65411600       0.31065000
    42  C          0.89055000       0.15411600       0.18935000
    43  C          0.89055000       0.34588400       0.68935000
    44  C          0.10945000       0.84588400       0.81065000
    45  C          0.16865000       0.61711600       0.49025000
    46  C          0.83135000       0.11711600       0.00975000
    47  C          0.83135000       0.38288400       0.50975000
    48  C          0.16865000       0.88288400      -0.00975000
    49  H          0.35383000       0.19811200       0.28653000
    50  H          0.64617000       0.69811200       0.21347000
    51  H          0.64617000       0.80188800       0.71347000
    52  H          0.35383000       0.30188800       0.78653000
    53  H          0.49284000       0.10181500       0.66964000
    54  H          0.50716000       0.60181500       0.83036000
    55  H          0.50716000       0.89818500       0.33036000
    56  H          0.49284000       0.39818500       0.16964000
    57  H          0.19774000       0.45291500       0.22275000
    58  H          0.80226000       0.95291500       0.27725000
    59  H          0.80226000       0.54708500       0.77725000
    60  H          0.19774000       0.04708500       0.72275000
    61  H          0.03655000       0.80801800       0.42075000
    62  H          0.96345000       0.30801800       0.07925000
    63  H          0.96345000       0.19198200       0.57925000
    64  H          0.03655000       0.69198200       0.92075000
    65  H          0.06135000       0.72851600       0.25745000
    66  H          0.93865000       0.22851600       0.24255000
    67  H          0.93865000       0.27148400       0.74255000
    68  H          0.06135000       0.77148400       0.75745000
    69  H          0.16055000       0.66061600       0.55635000
    70  H          0.83945000       0.16061600       0.94365000
    71  H          0.83945000       0.33938400       0.44365000
    72  H          0.16055000       0.83938400       0.05635000
