data_QNACRD03
_symmetry_space_group_name_H-M    'P1'
_symmetry_Int_Tables_number       1
loop_
_symmetry_equiv_pos_site_id
_symmetry_equiv_pos_as_xyz
1 x,y,z
_cell_length_a                   14.93464
_cell_length_b                   3.6224
_cell_length_c                   12.9354
_cell_angle_alpha                91.3928
_cell_angle_beta                 107.132
_cell_angle_gamma                92.8424
loop_
_atom_site_label
_atom_site_type_symbol
_atom_site_fract_x
_atom_site_fract_y
_atom_site_fract_z
     1  C         -0.00900000       0.02900000       0.10300000
     2  C          0.00900000      -0.02900000       0.89700000
     3  C          0.07700000       0.12900000       0.08800000
     4  C          0.92300000       0.87100000       0.91200000
     5  C          0.76300000       0.64300000       0.83800000
     6  C          0.23700000       0.35700000       0.16200000
     7  C          0.68900000       0.51600000       0.74600000
     8  C          0.31100000       0.48400000       0.25400000
     9  C          0.60100000       0.41100000       0.75700000
    10  C          0.39900000       0.58900000       0.24300000
    11  C          0.58700000       0.43300000       0.85800000
    12  C          0.41300000       0.56700000       0.14200000
    13  C          0.65800000       0.55600000       0.94700000
    14  C          0.34200000       0.44400000       0.05300000
    15  C          0.74800000       0.66500000       0.94000000
    16  C          0.25200000       0.33500000       0.06000000
    17  C          0.82300000       0.79400000       0.03500000
    18  C          0.17700000       0.20600000       0.96500000
    19  C          0.91400000       0.90000000       0.01700000
    20  C          0.08600000       0.10000000       0.98300000
    21  N          0.15200000       0.25500000       0.17300000
    22  N          0.84800000       0.74500000       0.82700000
    23  O          0.81500000       0.82000000       0.12800000
    24  O          0.18500000       0.18000000       0.87200000
    25  H          0.98400000       0.04900000       0.17600000
    26  H          0.01600000       0.95100000       0.82400000
    27  H          0.14600000       0.27400000       0.24000000
    28  H          0.85400000       0.72600000       0.76000000
    29  H          0.69500000       0.49700000       0.67800000
    30  H          0.30500000       0.50300000       0.32200000
    31  H          0.54700000       0.31800000       0.69100000
    32  H          0.45300000       0.68200000       0.30900000
    33  H          0.52600000       0.36100000       0.86700000
    34  H          0.47400000       0.63900000       0.13300000
    35  H          0.65200000       0.57500000       0.01600000
    36  H          0.34800000       0.42500000       0.98400000
    37  C          0.01000000       0.52900000       0.39700000
    38  C         -0.01000000       0.47100000       0.60300000
    39  C          0.92700000       0.62900000       0.41500000
    40  C          0.07300000       0.37100000       0.58500000
    41  C          0.22600000       0.14300000       0.65300000
    42  C          0.77400000       0.85700000       0.34700000
    43  C          0.29600000       0.01600000       0.74200000
    44  C          0.70400000      -0.01600000       0.25800000
    45  C          0.38100000       0.91100000       0.72900000
    46  C          0.61900000       0.08900000       0.27100000
    47  C          0.39600000       0.93300000       0.62900000
    48  C          0.60400000       0.06700000       0.37100000
    49  C          0.32800000       0.05600000       0.54200000
    50  C          0.67200000       0.94400000       0.45800000
    51  C          0.24200000       0.16500000       0.55200000
    52  C          0.75800000       0.83500000       0.44800000
    53  C          0.17100000       0.29400000       0.46000000
    54  C          0.82900000       0.70600000       0.54000000
    55  C          0.08300000       0.40000000       0.48000000
    56  C          0.91700000       0.60000000       0.52000000
    57  N          0.85600000       0.75500000       0.33300000
    58  N          0.14400000       0.24500000       0.66700000
    59  O          0.18000000       0.32000000       0.36800000
    60  O          0.82000000       0.68000000       0.63200000
    61  H          0.01700000       0.54900000       0.32500000
    62  H          0.98300000       0.45100000       0.67500000
    63  H          0.86300000       0.77400000       0.26700000
    64  H          0.13700000       0.22600000       0.73300000
    65  H          0.28900000      -0.00300000       0.81000000
    66  H          0.71100000       0.00300000       0.19000000
    67  H          0.43300000       0.81800000       0.79200000
    68  H          0.56700000       0.18200000       0.20800000
    69  H          0.45500000       0.86100000       0.61800000
    70  H          0.54500000       0.13900000       0.38200000
    71  H          0.33500000       0.07500000       0.47400000
    72  H          0.66500000       0.92500000       0.52600000
