data_QNACRD05
_symmetry_space_group_name_H-M    'P1'
_symmetry_Int_Tables_number       1
loop_
_symmetry_equiv_pos_site_id
_symmetry_equiv_pos_as_xyz
1 x,y,z
_cell_length_a                   5.73666
_cell_length_b                   3.88514
_cell_length_c                   29.8804
_cell_angle_alpha                90.0
_cell_angle_beta                 95.8618
_cell_angle_gamma                90.0
loop_
_atom_site_label
_atom_site_type_symbol
_atom_site_fract_x
_atom_site_fract_y
_atom_site_fract_z
     1  O          0.70628900       0.58331700       0.08912000
     2  O          0.29371100       0.08331700       0.41088000
     3  O          0.29371100       0.41668300       0.91088000
     4  O          0.70628900       0.91668300       0.58912000
     5  N          0.30291000       0.15301500       0.07695190
     6  N          0.69709000       0.65301500       0.42304810
     7  N          0.69709000       0.84698500       0.92304810
     8  N          0.30291000       0.34698500       0.57695190
     9  C         -0.00301100       0.76691800       0.16842000
    10  C          0.00301100       0.26691800       0.33158000
    11  C          0.00301100       0.23308200       0.83158000
    12  C         -0.00301100       0.73308200       0.66842000
    13  C          0.14951200       0.83831800       0.20462000
    14  C          0.85048800       0.33831800       0.29538000
    15  C          0.85048800       0.16168200       0.79538000
    16  C          0.14951200       0.66168200       0.70462000
    17  C          0.36081200       0.01401800       0.19902000
    18  C          0.63918800       0.51401800       0.30098000
    19  C          0.63918800      -0.01401800       0.80098000
    20  C          0.36081200       0.48598200       0.69902000
    21  C          0.40941200       0.11091800       0.15712000
    22  C          0.59058800       0.61091800       0.34288000
    23  C          0.59058800       0.88908200       0.84288000
    24  C          0.40941200       0.38908200       0.65712000
    25  C          0.25311100       0.04171700       0.11932000
    26  C          0.74688900       0.54171700       0.38068000
    27  C          0.74688900       0.95828300       0.88068000
    28  C          0.25311100       0.45828300       0.61932000
    29  C          0.15261100       0.07781800       0.03882000
    30  C          0.84738900       0.57781800       0.46118000
    31  C          0.84738900       0.92218200       0.96118000
    32  C          0.15261100       0.42218200       0.53882000
    33  C          0.94498900       0.89191700       0.04222000
    34  C          0.05501100       0.39191700       0.45778000
    35  C          0.05501100       0.10808300       0.95778000
    36  C          0.94498900       0.60808300       0.54222000
    37  C          0.88508900       0.77001800       0.08582000
    38  C          0.11491100       0.27001800       0.41418000
    39  C          0.11491100       0.22998200       0.91418000
    40  C          0.88508900       0.72998200       0.58582000
    41  C          0.04441100       0.86151700       0.12462000
    42  C          0.95558900       0.36151700       0.37538000
    43  C          0.95558900       0.13848300       0.87538000
    44  C          0.04441100       0.63848300       0.62462000
    45  C          0.79148800       0.81621800       0.00362000
    46  C          0.20851200       0.31621800       0.49638000
    47  C          0.20851200       0.18378200      -0.00362000
    48  C          0.79148800       0.68378200       0.50362000
    49  H          0.42830000       0.26970000       0.07440000
    50  H          0.57170000       0.76970000       0.42560000
    51  H          0.57170000       0.73030000       0.92560000
    52  H          0.42830000       0.23030000       0.57440000
    53  H          0.85790000       0.65320000       0.17240000
    54  H          0.14210000       0.15320000       0.32760000
    55  H          0.14210000       0.34680000       0.82760000
    56  H          0.85790000       0.84680000       0.67240000
    57  H          0.11600000       0.77240000       0.23320000
    58  H          0.88400000       0.27240000       0.26680000
    59  H          0.88400000       0.22760000       0.76680000
    60  H          0.11600000       0.72760000       0.73320000
    61  H          0.46640000       0.06320000       0.22390000
    62  H          0.53360000       0.56320000       0.27610000
    63  H          0.53360000       0.93680000       0.77610000
    64  H          0.46640000       0.43680000       0.72390000
    65  H          0.54900000       0.22490000       0.15370000
    66  H          0.45100000       0.72490000       0.34630000
    67  H          0.45100000       0.77510000       0.84630000
    68  H          0.54900000       0.27510000       0.65370000
    69  H          0.65330000       0.69600000       0.00620000
    70  H          0.34670000       0.19600000       0.49380000
    71  H          0.34670000       0.30400000       0.99380000
    72  H          0.65330000       0.80400000       0.50620000
