data_QOBHEW01
_symmetry_space_group_name_H-M    'P1'
_symmetry_Int_Tables_number       1
loop_
_symmetry_equiv_pos_site_id
_symmetry_equiv_pos_as_xyz
1 x,y,z
_cell_length_a                   4.74442
_cell_length_b                   4.85864
_cell_length_c                   13.814519
_cell_angle_alpha                90.0
_cell_angle_beta                 99.5378
_cell_angle_gamma                90.0
loop_
_atom_site_label
_atom_site_type_symbol
_atom_site_fract_x
_atom_site_fract_y
_atom_site_fract_z
     1  N          0.12563000       0.66813000       0.30998140
     2  N          0.87437000       0.16813000       0.19001860
     3  N          0.87437000       0.33187000       0.69001860
     4  N          0.12563000       0.83187000       0.80998140
     5  H          0.06387400       0.70755900       0.36500500
     6  H          0.93612600       0.20755900       0.13499500
     7  H          0.93612600       0.29244100       0.63499500
     8  H          0.06387400       0.79244100       0.86500500
     9  H          0.01783400       0.53455900       0.28073500
    10  H         -0.01783400       0.03455900       0.21926500
    11  H         -0.01783400       0.46544100       0.71926500
    12  H          0.01783400       0.96544100       0.78073500
    13  C          0.41374000       0.55364000       0.33483180
    14  C          0.58626000       0.05364000       0.16516820
    15  C          0.58626000       0.44636000       0.66516820
    16  C          0.41374000       0.94636000       0.83483180
    17  H          0.53864200       0.69337700       0.36884600
    18  H          0.46135800       0.19337700       0.13115400
    19  H          0.46135800       0.30662300       0.63115400
    20  H          0.53864200       0.80662300       0.86884600
    21  H          0.48330200       0.50980000       0.27447700
    22  H          0.51669800       0.00980000       0.22552300
    23  H          0.51669800       0.49020000       0.72552300
    24  H          0.48330200      -0.00980000       0.77447700
    25  C          0.43354000       0.29754000       0.39835170
    26  C          0.56646000       0.79754000       0.10164830
    27  C          0.56646000       0.70246000       0.60164830
    28  C          0.43354000       0.20246000       0.89835170
    29  H          0.35174900       0.33628400       0.45676500
    30  H          0.64825100       0.83628400       0.04323500
    31  H          0.64825100       0.66371600       0.54323500
    32  H          0.35174900       0.16371600       0.95676500
    33  H          0.32151600       0.15186900       0.36248500
    34  H          0.67848400       0.65186900       0.13751500
    35  H          0.67848400       0.84813100       0.63751500
    36  H          0.32151600       0.34813100       0.86248500
    37  C          0.73804000       0.19874000       0.42861170
    38  C          0.26196000       0.69874000       0.07138830
    39  C          0.26196000       0.80126000       0.57138830
    40  C          0.73804000       0.30126000       0.92861170
    41  H          0.73934100       0.03680300       0.46853400
    42  H          0.26065900       0.53680300       0.03146600
    43  H          0.26065900       0.96319700       0.53146600
    44  H          0.73934100       0.46319700       0.96853400
    45  H          0.81881200       0.15610100       0.37111000
    46  H          0.18118800       0.65610100       0.12889000
    47  H          0.18118800       0.84389900       0.62889000
    48  H          0.81881200       0.34389900       0.87111000
    49  H          0.84904300       0.34050700       0.46538600
    50  H          0.15095700       0.84050700       0.03461400
    51  H          0.15095700       0.65949300       0.53461400
    52  H          0.84904300       0.15949300       0.96538600
