data_QOBHOG01
_symmetry_space_group_name_H-M    'P1'
_symmetry_Int_Tables_number       1
loop_
_symmetry_equiv_pos_site_id
_symmetry_equiv_pos_as_xyz
1 x,y,z
_cell_length_a                   3.964614
_cell_length_b                   8.6824
_cell_length_c                   32.0555
_cell_angle_alpha                90.0
_cell_angle_beta                 90.0
_cell_angle_gamma                90.0
loop_
_atom_site_label
_atom_site_type_symbol
_atom_site_fract_x
_atom_site_fract_y
_atom_site_fract_z
     1  N         -0.00138300       0.05589000       0.26092000
     2  N          0.00138300       0.94411000       0.76092000
     3  N          0.00138300       0.55589000       0.26092000
     4  N         -0.00138300       0.44411000       0.76092000
     5  H          0.80924200       0.10859200       0.26285900
     6  H          0.19075800       0.89140800       0.76285900
     7  H          0.19075800       0.60859200       0.26285900
     8  H          0.80924200       0.39140800       0.76285900
     9  H          0.16318200       0.12164200       0.25621900
    10  H          0.83681800       0.87835800       0.75621900
    11  H          0.83681800       0.62164200       0.25621900
    12  H          0.16318200       0.37835800       0.75621900
    13  C          0.93730000       0.97628700       0.22153000
    14  C          0.06270000       0.02371300       0.72153000
    15  C          0.06270000       0.47628700       0.22153000
    16  C          0.93730000       0.52371300       0.72153000
    17  H          0.75942400       0.90132900       0.22593400
    18  H          0.24057600       0.09867100       0.72593400
    19  H          0.24057600       0.40132900       0.22593400
    20  H          0.75942400       0.59867100       0.72593400
    21  H          0.13978600       0.91971200       0.21416700
    22  H          0.86021400       0.08028800       0.71416700
    23  H          0.86021400       0.41971200       0.21416700
    24  H          0.13978600       0.58028800       0.71416700
    25  C          0.83930000       0.07591000       0.18452000
    26  C          0.16070000       0.92409000       0.68452000
    27  C          0.16070000       0.57591000       0.18452000
    28  C          0.83930000       0.42409000       0.68452000
    29  H          0.64749000       0.13914300       0.19219900
    30  H          0.35251000       0.86085700       0.69219900
    31  H          0.35251000       0.63914300       0.19219900
    32  H          0.64749000       0.36085700       0.69219900
    33  H          0.02537200       0.14431500       0.17792100
    34  H         -0.02537200       0.85568500       0.67792100
    35  H         -0.02537200       0.64431500       0.17792100
    36  H          0.02537200       0.35568500       0.67792100
    37  C          0.75130000       0.98321000       0.14613000
    38  C          0.24870000       0.01679000       0.64613000
    39  C          0.24870000       0.48321000       0.14613000
    40  C          0.75130000       0.51679000       0.64613000
    41  H          0.56329900       0.91582800       0.15279300
    42  H          0.43670100       0.08417200       0.65279300
    43  H          0.43670100       0.41582800       0.15279300
    44  H          0.56329900       0.58417200       0.65279300
    45  H          0.94173000       0.91890200       0.13886700
    46  H          0.05827000       0.08109800       0.63886700
    47  H          0.05827000       0.41890200       0.13886700
    48  H          0.94173000       0.58109800       0.63886700
    49  C          0.65630000       0.08041100       0.10822000
    50  C          0.34370000       0.91958900       0.60822000
    51  C          0.34370000       0.58041100       0.10822000
    52  C          0.65630000       0.41958900       0.60822000
    53  H          0.46971000       0.14750400       0.11575200
    54  H          0.53029000       0.85249600       0.61575200
    55  H          0.53029000       0.64750400       0.11575200
    56  H          0.46971000       0.35249600       0.61575200
    57  H          0.84593800       0.14531500       0.10092100
    58  H          0.15406200       0.85468500       0.60092100
    59  H          0.15406200       0.64531500       0.10092100
    60  H          0.84593800       0.35468500       0.60092100
    61  C          0.55630000      -0.01211500       0.07044000
    62  C          0.44370000       0.01211500       0.57044000
    63  C          0.44370000       0.48788500       0.07044000
    64  C          0.55630000       0.51211500       0.57044000
    65  H          0.49961900       0.05647800       0.04791800
    66  H          0.50038100       0.94352200       0.54791800
    67  H          0.50038100       0.55647800       0.04791800
    68  H          0.49961900       0.44352200       0.54791800
    69  H          0.74003600       0.92306700       0.06212700
    70  H          0.25996400       0.07693300       0.56212700
    71  H          0.25996400       0.42306700       0.06212700
    72  H          0.74003600       0.57693300       0.56212700
    73  H          0.36331800       0.92525900       0.07697700
    74  H          0.63668200       0.07474100       0.57697700
    75  H          0.63668200       0.42525900       0.07697700
    76  H          0.36331800       0.57474100       0.57697700
    77  N          0.51620000       0.31051000       0.30242000
    78  N          0.48380000       0.68949000       0.80242000
    79  N          0.48380000       0.81051000       0.30242000
    80  N          0.51620000       0.18949000       0.80242000
    81  H          0.69492800       0.35651700       0.29193100
    82  H          0.30507200       0.64348300       0.79193100
    83  H          0.30507200       0.85651700       0.29193100
    84  H          0.69492800       0.14348300       0.79193100
    85  H          0.34054800       0.37247700       0.30047100
    86  H          0.65945200       0.62752300       0.80047100
    87  H          0.65945200       0.87247700       0.30047100
    88  H          0.34054800       0.12752300       0.80047100
    89  C          0.58630000       0.23471300       0.34153000
    90  C          0.41370000       0.76528700       0.84153000
    91  C          0.41370000       0.73471300       0.34153000
    92  C          0.58630000       0.26528700       0.84153000
    93  H          0.77587400       0.16613400       0.33712000
    94  H          0.22412600       0.83386600       0.83712000
    95  H          0.22412600       0.66613400       0.33712000
    96  H          0.77587400       0.33386600       0.83712000
    97  H          0.39301000       0.17091300       0.34833600
    98  H          0.60699000       0.82908700       0.84833600
    99  H          0.60699000       0.67091300       0.34833600
   100  H          0.39301000       0.32908700       0.84833600
   101  C          0.66430000       0.33261100       0.37892000
   102  C          0.33570000       0.66738900       0.87892000
   103  C          0.33570000       0.83261100       0.37892000
   104  C          0.66430000       0.16738900       0.87892000
   105  H          0.46638300       0.39420800       0.38542700
   106  H          0.53361700       0.60579200       0.88542700
   107  H          0.53361700       0.89420800       0.38542700
   108  H          0.46638300       0.10579200       0.88542700
   109  H          0.84504600       0.40276100       0.37178500
   110  H          0.15495400       0.59723900       0.87178500
   111  H          0.15495400       0.90276100       0.37178500
   112  H          0.84504600       0.09723900       0.87178500
   113  C          0.76430000       0.24251100       0.41762000
   114  C          0.23570000       0.75748900       0.91762000
   115  C          0.23570000       0.74251100       0.41762000
   116  C          0.76430000       0.25748900       0.91762000
   117  H          0.58168800       0.17327900       0.42490600
   118  H          0.41831200       0.82672100       0.92490600
   119  H          0.41831200       0.67327900       0.42490600
   120  H          0.58168800       0.32672100       0.92490600
   121  H          0.95984100       0.17988300       0.41095200
   122  H          0.04015900       0.82011700       0.91095200
   123  H          0.04015900       0.67988300       0.41095200
   124  H          0.95984100       0.32011700       0.91095200
   125  C          0.84630000       0.34111100       0.45492000
   126  C          0.15370000       0.65888900       0.95492000
   127  C          0.15370000       0.84111100       0.45492000
   128  C          0.84630000       0.15888900       0.95492000
   129  H          0.65003900       0.40236000       0.46209200
   130  H          0.34996100       0.59764000       0.96209200
   131  H          0.34996100       0.90236000       0.46209200
   132  H          0.65003900       0.09764000       0.96209200
   133  H          0.02777000       0.41112600       0.44773200
   134  H         -0.02777000       0.58887400       0.94773200
   135  H         -0.02777000       0.91112600       0.44773200
   136  H          0.02777000       0.08887400       0.94773200
   137  C          0.95230000       0.24371400       0.49293000
   138  C          0.04770000       0.75628600       0.99293000
   139  C          0.04770000       0.74371400       0.49293000
   140  C          0.95230000       0.25628600       0.99293000
   141  H          0.00135700       0.31049800       0.51596900
   142  H         -0.00135700       0.68950200       0.01596900
   143  H         -0.00135700       0.81049800       0.51596900
   144  H          0.00135700       0.18950200       0.01596900
   145  H          0.77062800       0.17557800       0.50041300
   146  H          0.22937200       0.82442200       0.00041300
   147  H          0.22937200       0.67557800       0.50041300
   148  H          0.77062800       0.32442200       0.00041300
   149  H          0.14814900       0.18433800       0.48606100
   150  H          0.85185100       0.81566200       0.98606100
   151  H          0.85185100       0.68433800       0.48606100
   152  H          0.14814900       0.31566200       0.98606100
