data_QOBHIA01
_symmetry_space_group_name_H-M    'P1'
_symmetry_Int_Tables_number       1
loop_
_symmetry_equiv_pos_site_id
_symmetry_equiv_pos_as_xyz
1 x,y,z
_cell_length_a                   12.83489
_cell_length_b                   6.597511
_cell_length_c                   5.41854
_cell_angle_alpha                90.0
_cell_angle_beta                 90.0
_cell_angle_gamma                90.0
loop_
_atom_site_label
_atom_site_type_symbol
_atom_site_fract_x
_atom_site_fract_y
_atom_site_fract_z
     1  N          0.04609190       0.56155000       0.84525000
     2  N          0.95390810       0.43845000       0.34525000
     3  N          0.95390810       0.06155000       0.84525000
     4  N          0.04609190       0.93845000       0.34525000
     5  H          0.01299800       0.53463600       0.70681300
     6  H          0.98700200       0.46536400       0.20681300
     7  H          0.98700200       0.03463600       0.70681300
     8  H          0.01299800       0.96536400       0.20681300
     9  H          0.05471800       0.68970600       0.88528300
    10  H          0.94528200       0.31029400       0.38528300
    11  H          0.94528200       0.18970600       0.88528300
    12  H          0.05471800       0.81029400       0.38528300
    13  C          0.14912000       0.46606000       0.83635000
    14  C          0.85088000       0.53394000       0.33635000
    15  C          0.85088000       0.96606000       0.83635000
    16  C          0.14912000       0.03394000       0.33635000
    17  H          0.13998600       0.32173800       0.80956000
    18  H          0.86001400       0.67826200       0.30956000
    19  H          0.86001400       0.82173800       0.80956000
    20  H          0.13998600       0.17826200       0.30956000
    21  H          0.18238300       0.48315500      -0.00424600
    22  H          0.81761700       0.51684500       0.49575400
    23  H          0.81761700      -0.01684500      -0.00424600
    24  H          0.18238300       0.01684500       0.49575400
    25  C          0.22172000       0.54786000       0.63865000
    26  C          0.77828000       0.45214000       0.13865000
    27  C          0.77828000       0.04786000       0.63865000
    28  C          0.22172000       0.95214000       0.13865000
    29  H          0.18974300       0.52732100       0.47828700
    30  H          0.81025700       0.47267900      -0.02171300
    31  H          0.81025700       0.02732100       0.47828700
    32  H          0.18974300       0.97267900      -0.02171300
    33  H          0.23013500       0.69251400       0.66266800
    34  H          0.76986500       0.30748600       0.16266800
    35  H          0.76986500       0.19251400       0.66266800
    36  H          0.23013500       0.80748600       0.16266800
    37  C          0.32832000       0.44847000       0.63955000
    38  C          0.67168000       0.55153000       0.13955000
    39  C          0.67168000       0.94847000       0.63955000
    40  C          0.32832000       0.05153000       0.13955000
    41  H          0.32007100       0.30410300       0.61130600
    42  H          0.67992900       0.69589700       0.11130600
    43  H          0.67992900       0.80410300       0.61130600
    44  H          0.32007100       0.19589700       0.11130600
    45  H          0.35965900       0.46606400       0.80098000
    46  H          0.64034100       0.53393600       0.30098000
    47  H          0.64034100       0.96606400       0.80098000
    48  H          0.35965900       0.03393600       0.30098000
    49  C          0.40123000       0.53466000       0.44508000
    50  C          0.59877000       0.46534000       0.94508000
    51  C          0.59877000       0.03466000       0.44508000
    52  C          0.40123000       0.96534000       0.94508000
    53  H          0.46719000       0.46659000       0.45386000
    54  H          0.53281000       0.53341000       0.95386000
    55  H          0.53281000       0.96659000       0.45386000
    56  H          0.46719000       0.03341000       0.95386000
    57  H          0.37140200       0.51491500       0.28426300
    58  H          0.62859800       0.48508500       0.78426300
    59  H          0.62859800       0.01491500       0.28426300
    60  H          0.37140200      -0.01491500       0.78426300
    61  H          0.41100100       0.67692200       0.47399100
    62  H          0.58899900       0.32307800       0.97399100
    63  H          0.58899900       0.17692200       0.47399100
    64  H          0.41100100       0.82307800       0.97399100
