data_QOBHIA
_symmetry_space_group_name_H-M    'P1'
_symmetry_Int_Tables_number       1
loop_
_symmetry_equiv_pos_site_id
_symmetry_equiv_pos_as_xyz
1 x,y,z
_cell_length_a                   26.78528
_cell_length_b                   6.81662
_cell_length_c                   5.67032
_cell_angle_alpha                90.0
_cell_angle_beta                 90.0
_cell_angle_gamma                90.0
loop_
_atom_site_label
_atom_site_type_symbol
_atom_site_fract_x
_atom_site_fract_y
_atom_site_fract_z
     1  N          0.72790300       0.30818150       0.19230160
     2  N          0.22790300       0.19181850       0.80769840
     3  N          0.27209700       0.30818150       0.30769840
     4  N          0.77209700       0.19181850       0.69230160
     5  N          0.27209700       0.69181850       0.80769840
     6  N          0.77209700       0.80818150       0.19230160
     7  N          0.72790300       0.69181850       0.69230160
     8  N          0.22790300       0.80818150       0.30769840
     9  C          0.67812300       0.22006150       0.17765160
    10  C          0.17812300       0.27993850       0.82234840
    11  C          0.32187700       0.22006150       0.32234840
    12  C          0.82187700       0.27993850       0.67765160
    13  C          0.32187700       0.77993850       0.82234840
    14  C          0.82187700       0.72006150       0.17765160
    15  C          0.67812300       0.77993850       0.67765160
    16  C          0.17812300       0.72006150       0.32234840
    17  C          0.63984300       0.29726140       0.35336160
    18  C          0.13984300       0.20273860       0.64663840
    19  C          0.36015700       0.29726140       0.14663840
    20  C          0.86015700       0.20273860       0.85336160
    21  C          0.36015700       0.70273860       0.64663840
    22  C          0.86015700       0.79726140       0.35336160
    23  C          0.63984300       0.70273860       0.85336160
    24  C          0.13984300       0.79726140       0.14663840
    25  C          0.58898400       0.20079170       0.32972190
    26  C          0.08898400       0.29920830       0.67027810
    27  C          0.41101600       0.20079170       0.17027810
    28  C          0.91101600       0.29920830       0.82972190
    29  C          0.41101600       0.79920830       0.67027810
    30  C          0.91101600       0.70079170       0.32972190
    31  C          0.58898400       0.79920830       0.82972190
    32  C          0.08898400       0.70079170       0.17027810
    33  C          0.55075400       0.27832000       0.50532000
    34  C          0.05075400       0.22168000       0.49468000
    35  C          0.44924600       0.27832000      -0.00532000
    36  C          0.94924600       0.22168000       0.00532000
    37  C          0.44924600       0.72168000       0.49468000
    38  C          0.94924600       0.77832000       0.50532000
    39  C          0.55075400       0.72168000       0.00532000
    40  C          0.05075400       0.77832000      -0.00532000
    41  H          0.73995000       0.29241900       0.33720000
    42  H          0.23995000       0.20758100       0.66280000
    43  H          0.26005000       0.29241900       0.16280000
    44  H          0.76005000       0.20758100       0.83720000
    45  H          0.26005000       0.70758100       0.66280000
    46  H          0.76005000       0.79241900       0.33720000
    47  H          0.73995000       0.70758100       0.83720000
    48  H          0.23995000       0.79241900       0.16280000
    49  H          0.72644000       0.43491800       0.17320000
    50  H          0.22644000       0.06508200       0.82680000
    51  H          0.27356000       0.43491800       0.32680000
    52  H          0.77356000       0.06508200       0.67320000
    53  H          0.27356000       0.56508200       0.82680000
    54  H          0.77356000       0.93491800       0.17320000
    55  H          0.72644000       0.56508200       0.67320000
    56  H          0.22644000       0.93491800       0.32680000
    57  H          0.68154000       0.07801600       0.19871800
    58  H          0.18154000       0.42198400       0.80128200
    59  H          0.31846000       0.07801600       0.30128200
    60  H          0.81846000       0.42198400       0.69871800
    61  H          0.31846000       0.92198400       0.80128200
    62  H          0.81846000       0.57801600       0.19871800
    63  H          0.68154000       0.92198400       0.69871800
    64  H          0.18154000       0.57801600       0.30128200
    65  H          0.66554000       0.24031600       0.01701900
    66  H          0.16554000       0.25968400      -0.01701900
    67  H          0.33446000       0.24031600       0.48298100
    68  H          0.83446000       0.25968400       0.51701900
    69  H          0.33446000       0.75968400      -0.01701900
    70  H          0.83446000       0.74031600       0.01701900
    71  H          0.66554000       0.75968400       0.51701900
    72  H          0.16554000       0.74031600       0.48298100
    73  H          0.65284000       0.27641500       0.51661900
    74  H          0.15284000       0.22358500       0.48338100
    75  H          0.34716000       0.27641500      -0.01661900
    76  H          0.84716000       0.22358500       0.01661900
    77  H          0.34716000       0.72358500       0.48338100
    78  H          0.84716000       0.77641500       0.51661900
    79  H          0.65284000       0.72358500       0.01661900
    80  H          0.15284000       0.77641500      -0.01661900
    81  H          0.63644000       0.43891600       0.32901800
    82  H          0.13644000       0.06108400       0.67098200
    83  H          0.36356000       0.43891600       0.17098200
    84  H          0.86356000       0.06108400       0.82901800
    85  H          0.36356000       0.56108400       0.67098200
    86  H          0.86356000       0.93891600       0.32901800
    87  H          0.63644000       0.56108400       0.82901800
    88  H          0.13644000       0.93891600       0.17098200
    89  H          0.59284000       0.06031700       0.34720000
    90  H          0.09284000       0.43968300       0.65280000
    91  H          0.40716000       0.06031700       0.15280000
    92  H          0.90716000       0.43968300       0.84720000
    93  H          0.40716000       0.93968300       0.65280000
    94  H          0.90716000       0.56031700       0.34720000
    95  H          0.59284000       0.93968300       0.84720000
    96  H          0.09284000       0.56031700       0.15280000
    97  H          0.57675000       0.22091700       0.16920000
    98  H          0.07675000       0.27908300       0.83080000
    99  H          0.42325000       0.22091700       0.33080000
   100  H          0.92325000       0.27908300       0.66920000
   101  H          0.42325000       0.77908300       0.83080000
   102  H          0.92325000       0.72091700       0.16920000
   103  H          0.57675000       0.77908300       0.66920000
   104  H          0.07675000       0.72091700       0.33080000
   105  H          0.56355000       0.26120000       0.66820000
   106  H          0.06355000       0.23880000       0.33180000
   107  H          0.43645000       0.26120000       0.83180000
   108  H          0.93645000       0.23880000       0.16820000
   109  H          0.43645000       0.73880000       0.33180000
   110  H          0.93645000       0.76120000       0.66820000
   111  H          0.56355000       0.73880000       0.16820000
   112  H          0.06355000       0.76120000       0.83180000
   113  H          0.54515000       0.41620000       0.48130000
   114  H          0.04515000       0.08380000       0.51870000
   115  H          0.45485000       0.41620000       0.01870000
   116  H          0.95485000       0.08380000      -0.01870000
   117  H          0.45485000       0.58380000       0.51870000
   118  H          0.95485000       0.91620000       0.48130000
   119  H          0.54515000       0.58380000      -0.01870000
   120  H          0.04515000       0.91620000       0.01870000
   121  H          0.51855000       0.20981900       0.48830000
   122  H          0.01855000       0.29018100       0.51170000
   123  H          0.48145000       0.20981900       0.01170000
   124  H          0.98145000       0.29018100      -0.01170000
   125  H          0.48145000       0.79018100       0.51170000
   126  H          0.98145000       0.70981900       0.48830000
   127  H          0.51855000       0.79018100      -0.01170000
   128  H          0.01855000       0.70981900       0.01170000
