data_QOBHIA02
_symmetry_space_group_name_H-M    'P1'
_symmetry_Int_Tables_number       1
loop_
_symmetry_equiv_pos_site_id
_symmetry_equiv_pos_as_xyz
1 x,y,z
_cell_length_a                   5.0205
_cell_length_b                   7.3374
_cell_length_c                   23.8235
_cell_angle_alpha                90.0
_cell_angle_beta                 90.0
_cell_angle_gamma                90.0
loop_
_atom_site_label
_atom_site_type_symbol
_atom_site_fract_x
_atom_site_fract_y
_atom_site_fract_z
     1  N          0.50030000       0.32620000       0.47905000
     2  N          0.49970000       0.67380000       0.97905000
     3  N          0.49970000       0.82620000       0.47905000
     4  N          0.50030000       0.17380000       0.97905000
     5  H          0.46064300       0.43766500       0.48942900
     6  H          0.53935700       0.56233500       0.98942900
     7  H          0.53935700       0.93766500       0.48942900
     8  H          0.46064300       0.06233500       0.98942900
     9  H          0.40346300       0.24314500       0.49657900
    10  H          0.59653700       0.75685500      -0.00342100
    11  H          0.59653700       0.74314500       0.49657900
    12  H          0.40346300       0.25685500      -0.00342100
    13  C          0.51640000       0.30520000       0.41775000
    14  C          0.48360000       0.69480000       0.91775000
    15  C          0.48360000       0.80520000       0.41775000
    16  C          0.51640000       0.19480000       0.91775000
    17  H          0.62230300       0.19891800       0.40863800
    18  H          0.37769700       0.80108200       0.90863800
    19  H          0.37769700       0.69891800       0.40863800
    20  H          0.62230300       0.30108200       0.90863800
    21  H          0.60283600       0.41140300       0.40171100
    22  H          0.39716400       0.58859700       0.90171100
    23  H          0.39716400       0.91140300       0.40171100
    24  H          0.60283600       0.08859700       0.90171100
    25  C          0.24550000       0.28530000       0.39326000
    26  C          0.75450000       0.71470000       0.89326000
    27  C          0.75450000       0.78530000       0.39326000
    28  C          0.24550000       0.21470000       0.89326000
    29  H          0.15288000       0.18609400       0.41187800
    30  H          0.84712000       0.81390600       0.91187800
    31  H          0.84712000       0.68609400       0.41187800
    32  H          0.15288000       0.31390600       0.91187800
    33  H          0.14443100       0.39618900       0.39972700
    34  H          0.85556900       0.60381100       0.89972700
    35  H          0.85556900       0.89618900       0.39972700
    36  H          0.14443100       0.10381100       0.89972700
    37  C          0.25660000       0.24820000       0.33236000
    38  C          0.74340000       0.75180000       0.83236000
    39  C          0.74340000       0.74820000       0.33236000
    40  C          0.25660000       0.25180000       0.83236000
    41  H          0.35619700       0.13675900       0.32689400
    42  H          0.64380300       0.86324100       0.82689400
    43  H          0.64380300       0.63675900       0.32689400
    44  H          0.35619700       0.36324100       0.82689400
    45  H          0.35674800       0.34582000       0.31487300
    46  H          0.64325200       0.65418000       0.81487300
    47  H          0.64325200       0.84582000       0.31487300
    48  H          0.35674800       0.15418000       0.81487300
    49  C         -0.00240000       0.22930000       0.30066000
    50  C          0.00240000       0.77070000       0.80066000
    51  C          0.00240000       0.72930000       0.30066000
    52  C         -0.00240000       0.27070000       0.80066000
    53  H          0.03471800       0.20582900       0.26174000
    54  H          0.96528200       0.79417100       0.76174000
    55  H          0.96528200       0.70582900       0.26174000
    56  H          0.03471800       0.29417100       0.76174000
    57  H          0.89662200       0.13019000       0.31596900
    58  H          0.10337800       0.86981000       0.81596900
    59  H          0.10337800       0.63019000       0.31596900
    60  H          0.89662200       0.36981000       0.81596900
    61  H          0.89717600       0.34024100       0.30389100
    62  H          0.10282400       0.65975900       0.80389100
    63  H          0.10282400       0.84024100       0.30389100
    64  H          0.89717600       0.15975900       0.80389100
    65  N         -0.00130000       0.11241900       0.51895000
    66  N          0.00130000       0.88758100       0.01895000
    67  N          0.00130000       0.61241900       0.51895000
    68  N         -0.00130000       0.38758100       0.01895000
    69  H          0.13509000       0.18811400       0.52059900
    70  H          0.86491000       0.81188600       0.02059900
    71  H          0.86491000       0.68811400       0.52059900
    72  H          0.13509000       0.31188600       0.02059900
    73  H          0.03412000       0.01805400       0.49726900
    74  H          0.96588000      -0.01805400      -0.00273100
    75  H          0.96588000       0.51805400       0.49726900
    76  H          0.03412000       0.48194600      -0.00273100
    77  C         -0.00640000       0.06620000       0.57856000
    78  C          0.00640000       0.93380000       0.07856000
    79  C          0.00640000       0.56620000       0.57856000
    80  C         -0.00640000       0.43380000       0.07856000
    81  H          0.89448600       0.95393400       0.58274800
    82  H          0.10551400       0.04606600       0.08274800
    83  H          0.10551400       0.45393400       0.58274800
    84  H          0.89448600       0.54606600       0.08274800
    85  H          0.89580400       0.16104200       0.59792600
    86  H          0.10419600       0.83895800       0.09792600
    87  H          0.10419600       0.66104200       0.59792600
    88  H          0.89580400       0.33895800       0.09792600
    89  C          0.26750000       0.04220000       0.60856000
    90  C          0.73250000       0.95780000       0.10856000
    91  C          0.73250000       0.54220000       0.60856000
    92  C          0.26750000       0.45780000       0.10856000
    93  H          0.36191600       0.94331300       0.59049400
    94  H          0.63808400       0.05668700       0.09049400
    95  H          0.63808400       0.44331300       0.59049400
    96  H          0.36191600       0.55668700       0.09049400
    97  H          0.37019600       0.15252600       0.60302600
    98  H          0.62980400       0.84747400       0.10302600
    99  H          0.62980400       0.65252600       0.60302600
   100  H          0.37019600       0.34747400       0.10302600
   101  C          0.25250000       0.00520000       0.66866000
   102  C          0.74750000      -0.00520000       0.16866000
   103  C          0.74750000       0.50520000       0.66866000
   104  C          0.25250000       0.49480000       0.16866000
   105  H          0.15329300       0.10268000       0.68630700
   106  H          0.84670700       0.89732000       0.18630700
   107  H          0.84670700       0.60268000       0.68630700
   108  H          0.15329300       0.39732000       0.18630700
   109  H          0.15032000       0.89354000       0.67383600
   110  H          0.84968000       0.10646000       0.17383600
   111  H          0.84968000       0.39354000       0.67383600
   112  H          0.15032000       0.60646000       0.17383600
   113  C          0.50440000      -0.01530000       0.69778000
   114  C          0.49560000       0.01530000       0.19778000
   115  C          0.49560000       0.48470000       0.69778000
   116  C          0.50440000       0.51530000       0.19778000
   117  H          0.47141300       0.96036100       0.73672600
   118  H          0.52858700       0.03963900       0.23672600
   119  H          0.52858700       0.46036100       0.73672600
   120  H          0.47141300       0.53963900       0.23672600
   121  H          0.60220800       0.88530700       0.68162300
   122  H          0.39779200       0.11469300       0.18162300
   123  H          0.39779200       0.38530700       0.68162300
   124  H          0.60220800       0.61469300       0.18162300
   125  H          0.60519000       0.09508200       0.69413200
   126  H          0.39481000       0.90491800       0.19413200
   127  H          0.39481000       0.59508200       0.69413200
   128  H          0.60519000       0.40491800       0.19413200
