data_QOBHEW
_symmetry_space_group_name_H-M    'P1'
_symmetry_Int_Tables_number       1
loop_
_symmetry_equiv_pos_site_id
_symmetry_equiv_pos_as_xyz
1 x,y,z
_cell_length_a                   23.287013
_cell_length_b                   6.23544
_cell_length_c                   5.97944
_cell_angle_alpha                90.0
_cell_angle_beta                 90.0
_cell_angle_gamma                90.0
loop_
_atom_site_label
_atom_site_type_symbol
_atom_site_fract_x
_atom_site_fract_y
_atom_site_fract_z
     1  N          0.72466500       0.70672000       0.51212000
     2  N          0.22466500       0.79328000       0.48788000
     3  N          0.27533500       0.70672000      -0.01212000
     4  N          0.77533500       0.79328000       0.01212000
     5  N          0.27533500       0.29328000       0.48788000
     6  N          0.77533500       0.20672000       0.51212000
     7  N          0.72466500       0.29328000       0.01212000
     8  N          0.22466500       0.20672000      -0.01212000
     9  C          0.66843500       0.78782000       0.44432000
    10  C          0.16843500       0.71218000       0.55568000
    11  C          0.33156500       0.78782000       0.05568000
    12  C          0.83156500       0.71218000       0.94432000
    13  C          0.33156500       0.21218000       0.55568000
    14  C          0.83156500       0.28782000       0.44432000
    15  C          0.66843500       0.21218000       0.94432000
    16  C          0.16843500       0.28782000       0.05568000
    17  C          0.61693600       0.69542000       0.56822000
    18  C          0.11693600       0.80458000       0.43178000
    19  C          0.38306400       0.69542000       0.93178000
    20  C          0.88306400       0.80458000       0.06822000
    21  C          0.38306400       0.30458000       0.43178000
    22  C          0.88306400       0.19542000       0.56822000
    23  C          0.61693600       0.30458000       0.06822000
    24  C          0.11693600       0.19542000       0.93178000
    25  C          0.56034700       0.77914000       0.47634000
    26  C          0.06034700       0.72086000       0.52366000
    27  C          0.43965300       0.77914000       0.02366000
    28  C          0.93965300       0.72086000       0.97634000
    29  C          0.43965300       0.22086000       0.52366000
    30  C          0.93965300       0.27914000       0.47634000
    31  C          0.56034700       0.22086000       0.97634000
    32  C          0.06034700       0.27914000       0.02366000
    33  H          0.67015000       0.94520000       0.46120000
    34  H          0.17015000       0.55480000       0.53880000
    35  H          0.32985000       0.94520000       0.03880000
    36  H          0.82985000       0.55480000       0.96120000
    37  H          0.32985000       0.05480000       0.53880000
    38  H          0.82985000       0.44520000       0.46120000
    39  H          0.67015000       0.05480000       0.96120000
    40  H          0.17015000       0.44520000       0.03880000
    41  H          0.72785000       0.56920000       0.49530000
    42  H          0.22785000       0.93080000       0.50470000
    43  H          0.27215000       0.56920000       0.00470000
    44  H          0.77215000       0.93080000      -0.00470000
    45  H          0.27215000       0.43080000       0.50470000
    46  H          0.77215000       0.06920000       0.49530000
    47  H          0.72785000       0.43080000      -0.00470000
    48  H          0.22785000       0.06920000       0.00470000
    49  H          0.66515000       0.75820000       0.28620000
    50  H          0.16515000       0.74180000       0.71380000
    51  H          0.33485000       0.75820000       0.21380000
    52  H          0.83485000       0.74180000       0.78620000
    53  H          0.33485000       0.24180000       0.71380000
    54  H          0.83485000       0.25820000       0.28620000
    55  H          0.66515000       0.24180000       0.78620000
    56  H          0.16515000       0.25820000       0.21380000
    57  H          0.62076000       0.73020000       0.72420000
    58  H          0.12076000       0.76980000       0.27580000
    59  H          0.37924000       0.73020000       0.77580000
    60  H          0.87924000       0.76980000       0.22420000
    61  H          0.37924000       0.26980000       0.27580000
    62  H          0.87924000       0.23020000       0.72420000
    63  H          0.62076000       0.26980000       0.22420000
    64  H          0.12076000       0.23020000       0.77580000
    65  H          0.61785000       0.54020000       0.55720000
    66  H          0.11785000       0.95980000       0.44280000
    67  H          0.38215000       0.54020000       0.94280000
    68  H          0.88215000       0.95980000       0.05720000
    69  H          0.38215000       0.45980000       0.44280000
    70  H          0.88215000       0.04020000       0.55720000
    71  H          0.61785000       0.45980000       0.05720000
    72  H          0.11785000       0.04020000       0.94280000
    73  H          0.72996000       0.72820000       0.65520000
    74  H          0.22996000       0.77180000       0.34480000
    75  H          0.27004000       0.72820000       0.84480000
    76  H          0.77004000       0.77180000       0.15520000
    77  H          0.27004000       0.27180000       0.34480000
    78  H          0.77004000       0.22820000       0.65520000
    79  H          0.72996000       0.27180000       0.15520000
    80  H          0.22996000       0.22820000       0.84480000
    81  H          0.55688000       0.73930000       0.32030000
    82  H          0.05688000       0.76070000       0.67970000
    83  H          0.44312000       0.73930000       0.17970000
    84  H          0.94312000       0.76070000       0.82030000
    85  H          0.44312000       0.26070000       0.67970000
    86  H          0.94312000       0.23930000       0.32030000
    87  H          0.55688000       0.26070000       0.82030000
    88  H          0.05688000       0.23930000       0.17970000
    89  H          0.52857000       0.72030000       0.56130000
    90  H          0.02857000       0.77970000       0.43870000
    91  H          0.47143000       0.72030000       0.93870000
    92  H          0.97143000       0.77970000       0.06130000
    93  H          0.47143000       0.27970000       0.43870000
    94  H          0.97143000       0.22030000       0.56130000
    95  H          0.52857000       0.27970000       0.06130000
    96  H          0.02857000       0.22030000       0.93870000
    97  H          0.55997000       0.93430000       0.49030000
    98  H          0.05997000       0.56570000       0.50970000
    99  H          0.44003000       0.93430000       0.00970000
   100  H          0.94003000       0.56570000      -0.00970000
   101  H          0.44003000       0.06570000       0.50970000
   102  H          0.94003000       0.43430000       0.49030000
   103  H          0.55997000       0.06570000      -0.00970000
   104  H          0.05997000       0.43430000       0.00970000
