data_QOBHOG04
_symmetry_space_group_name_H-M    'P1'
_symmetry_Int_Tables_number       1
loop_
_symmetry_equiv_pos_site_id
_symmetry_equiv_pos_as_xyz
1 x,y,z
_cell_length_a                   3.710111
_cell_length_b                   4.095612
_cell_length_c                   31.1676
_cell_angle_alpha                90.0
_cell_angle_beta                 90.0
_cell_angle_gamma                90.0
loop_
_atom_site_label
_atom_site_type_symbol
_atom_site_fract_x
_atom_site_fract_y
_atom_site_fract_z
     1  N          0.07141100       0.41031100       0.22773800
     2  N          0.57141100       0.58968900       0.77226200
     3  N          0.07141100       0.08968900       0.72773800
     4  N          0.57141100       0.91031100       0.27226200
     5  H          0.23711500       0.55677400       0.22325300
     6  H          0.73711500       0.44322600       0.77674700
     7  H          0.23711500       0.94322600       0.72325300
     8  H          0.73711500       0.05677400       0.27674700
     9  H          0.91424500       0.55410400       0.23658300
    10  H          0.41424500       0.44589600       0.76341700
    11  H          0.91424500       0.94589600       0.73658300
    12  H          0.41424500       0.05410400       0.26341700
    13  C          0.96091300       0.23671300       0.18923110
    14  C          0.46091300       0.76328700       0.81076890
    15  C          0.96091300       0.26328700       0.68923110
    16  C          0.46091300       0.73671300       0.31076890
    17  H          0.76129800       0.09468000       0.19671600
    18  H          0.26129800       0.90532000       0.80328400
    19  H          0.76129800       0.40532000       0.69671600
    20  H          0.26129800       0.59468000       0.30328400
    21  H          0.15904000       0.09808600       0.18026600
    22  H          0.65904000       0.90191400       0.81973400
    23  H          0.15904000       0.40191400       0.68026600
    24  H          0.65904000       0.59808600       0.31973400
    25  C          0.84801600       0.44131200       0.15131110
    26  C          0.34801600       0.55868800       0.84868890
    27  C          0.84801600       0.05868800       0.65131110
    28  C          0.34801600       0.94131200       0.34868890
    29  H          0.04903100       0.57826200       0.14279400
    30  H          0.54903100       0.42173800       0.85720600
    31  H          0.04903100       0.92173800       0.64279400
    32  H          0.54903100       0.07826200       0.35720600
    33  H          0.65252700       0.58387500       0.16003200
    34  H          0.15252700       0.41612500       0.83996800
    35  H          0.65252700       0.91612500       0.66003200
    36  H          0.15252700       0.08387500       0.33996800
    37  C          0.72721900       0.24341300       0.11302120
    38  C          0.22721900       0.75658700       0.88697880
    39  C          0.72721900       0.25658700       0.61302120
    40  C          0.22721900       0.74341300       0.38697880
    41  H          0.92198400       0.09895000       0.10461700
    42  H          0.42198400       0.90105000       0.89538300
    43  H          0.92198400       0.40105000       0.60461700
    44  H          0.42198400       0.59895000       0.39538300
    45  H          0.52498400       0.10802500       0.12156800
    46  H          0.02498400       0.89197500       0.87843200
    47  H          0.52498400       0.39197500       0.62156800
    48  H          0.02498400       0.60802500       0.37843200
    49  C          0.61741700       0.44271300       0.07476110
    50  C          0.11741700       0.55728700       0.92523890
    51  C          0.61741700       0.05728700       0.57476110
    52  C          0.11741700       0.94271300       0.42523890
    53  H          0.82230200       0.57061000       0.06521400
    54  H          0.32230200       0.42939000       0.93478600
    55  H          0.82230200       0.92939000       0.56521400
    56  H          0.32230200       0.07061000       0.43478600
    57  H          0.42885800       0.59342500       0.08325700
    58  H          0.92885800       0.40657500       0.91674300
    59  H          0.42885800       0.90657500       0.58325700
    60  H          0.92885800       0.09342500       0.41674300
    61  C          0.48181400       0.23541500       0.03738110
    62  C         -0.01818600       0.76458500       0.96261890
    63  C          0.48181400       0.26458500       0.53738110
    64  C         -0.01818600       0.73541500       0.46261890
    65  H          0.41581200       0.37513500       0.01393300
    66  H          0.91581200       0.62486500       0.98606700
    67  H          0.41581200       0.12486500       0.51393300
    68  H          0.91581200       0.87513500       0.48606700
    69  H          0.66897500       0.08891700       0.02832600
    70  H          0.16897500       0.91108300       0.97167400
    71  H          0.66897500       0.41108300       0.52832600
    72  H          0.16897500       0.58891700       0.47167400
    73  H          0.27538100       0.11174100       0.04637600
    74  H          0.77538100       0.88825900       0.95362400
    75  H          0.27538100       0.38825900       0.54637600
    76  H          0.77538100       0.61174100       0.45362400
