data_QOBHEW02
_symmetry_space_group_name_H-M    'P1'
_symmetry_Int_Tables_number       1
loop_
_symmetry_equiv_pos_site_id
_symmetry_equiv_pos_as_xyz
1 x,y,z
_cell_length_a                   9.557615
_cell_length_b                   5.052512
_cell_length_c                   7.2656
_cell_angle_alpha                90.0
_cell_angle_beta                 94.823
_cell_angle_gamma                90.0
loop_
_atom_site_label
_atom_site_type_symbol
_atom_site_fract_x
_atom_site_fract_y
_atom_site_fract_z
     1  N          0.42293000       0.26676000       0.33079000
     2  N          0.57707000       0.76676000       0.16921000
     3  N          0.57707000       0.73324000       0.66921000
     4  N          0.42293000       0.23324000       0.83079000
     5  H          0.48513800       0.38772600       0.30772100
     6  H          0.51486200       0.88772600       0.19227900
     7  H          0.51486200       0.61227400       0.69227900
     8  H          0.48513800       0.11227400       0.80772100
     9  H          0.43664800       0.22712600       0.44822100
    10  H          0.56335200       0.72712600       0.05177900
    11  H          0.56335200       0.77287400       0.55177900
    12  H          0.43664800       0.27287400       0.94822100
    13  C          0.28484000       0.38488000       0.29591000
    14  C          0.71516000       0.88488000       0.20409000
    15  C          0.71516000       0.61512000       0.70409000
    16  C          0.28484000       0.11512000       0.79591000
    17  H          0.21496100       0.25109900       0.31644200
    18  H          0.78503900       0.75109900       0.18355800
    19  H          0.78503900       0.74890100       0.68355800
    20  H          0.21496100       0.24890100       0.81644200
    21  H          0.27206200       0.43500000       0.16666100
    22  H          0.72793800       0.93500000       0.33333900
    23  H          0.72793800       0.56500000       0.83333900
    24  H          0.27206200       0.06500000       0.66666100
    25  C          0.25654000       0.62328000       0.41081000
    26  C          0.74346000       0.12328000       0.08919000
    27  C          0.74346000       0.37672000       0.58919000
    28  C          0.25654000       0.87672000       0.91081000
    29  H          0.32635500       0.75769200       0.39228500
    30  H          0.67364500       0.25769200       0.10771500
    31  H          0.67364500       0.24230800       0.60771500
    32  H          0.32635500       0.74230800       0.89228500
    33  H          0.26586200       0.57381300       0.54027300
    34  H          0.73413800       0.07381300       0.95972700
    35  H          0.73413800       0.42618700       0.45972700
    36  H          0.26586200       0.92618700       0.04027300
    37  C          0.11134000       0.73847000       0.36341100
    38  C          0.88866000       0.23847000       0.13658900
    39  C          0.88866000       0.26153000       0.63658900
    40  C          0.11134000       0.76153000       0.86341100
    41  H          0.09841300       0.88960800       0.44026600
    42  H          0.90158700       0.38960800       0.05973400
    43  H          0.90158700       0.11039200       0.55973400
    44  H          0.09841300       0.61039200       0.94026600
    45  H          0.10209600       0.79126300       0.23606100
    46  H          0.89790400       0.29126300       0.26393900
    47  H          0.89790400       0.20873700       0.76393900
    48  H          0.10209600       0.70873700       0.73606100
    49  H          0.04160400       0.60738600       0.38404700
    50  H          0.95839600       0.10738600       0.11595300
    51  H          0.95839600       0.39261400       0.61595300
    52  H          0.04160400       0.89261400       0.88404700
