data_QOBHOG
_symmetry_space_group_name_H-M    'P1'
_symmetry_Int_Tables_number       1
loop_
_symmetry_equiv_pos_site_id
_symmetry_equiv_pos_as_xyz
1 x,y,z
_cell_length_a                   33.5464
_cell_length_b                   6.48788
_cell_length_c                   5.72957
_cell_angle_alpha                90.0
_cell_angle_beta                 90.0
_cell_angle_gamma                90.0
loop_
_atom_site_label
_atom_site_type_symbol
_atom_site_fract_x
_atom_site_fract_y
_atom_site_fract_z
     1  N          0.73190700       0.30155000       0.55184000
     2  N          0.23190700       0.19845000       0.44816000
     3  N          0.26809300       0.30155000       0.94816000
     4  N          0.76809300       0.19845000       0.05184000
     5  N          0.26809300       0.69845000       0.44816000
     6  N          0.76809300       0.80155000       0.55184000
     7  N          0.73190700       0.69845000       0.05184000
     8  N          0.23190700       0.80155000       0.94816000
     9  C          0.69327800       0.21645000       0.61295000
    10  C          0.19327800       0.28355000       0.38705000
    11  C          0.30672200       0.21645000       0.88705000
    12  C          0.80672200       0.28355000       0.11295000
    13  C          0.30672200       0.78355000       0.38705000
    14  C          0.80672200       0.71645000       0.61295000
    15  C          0.69327800       0.78355000       0.11295000
    16  C          0.19327800       0.71645000       0.88705000
    17  C          0.65776800       0.29635000       0.47835000
    18  C          0.15776800       0.20365000       0.52165000
    19  C          0.34223200       0.29635000       0.02165000
    20  C          0.84223200       0.20365000      -0.02165000
    21  C          0.34223200       0.70365000       0.52165000
    22  C          0.84223200       0.79635000       0.47835000
    23  C          0.65776800       0.70365000      -0.02165000
    24  C          0.15776800       0.79635000       0.02165000
    25  C          0.61822800       0.21045000       0.56075000
    26  C          0.11822800       0.28955000       0.43925000
    27  C          0.38177200       0.21045000       0.93925000
    28  C          0.88177200       0.28955000       0.06075000
    29  C          0.38177200       0.78955000       0.43925000
    30  C          0.88177200       0.71045000       0.56075000
    31  C          0.61822800       0.78955000       0.06075000
    32  C          0.11822800       0.71045000       0.93925000
    33  C          0.58237900       0.29546000       0.43186000
    34  C          0.08237900       0.20454000       0.56814000
    35  C          0.41762100       0.29546000       0.06814000
    36  C          0.91762100       0.20454000       0.93186000
    37  C          0.41762100       0.70454000       0.56814000
    38  C          0.91762100       0.79546000       0.43186000
    39  C          0.58237900       0.70454000       0.93186000
    40  C          0.08237900       0.79546000       0.06814000
    41  C          0.54278100       0.21948000       0.53058000
    42  C          0.04278100       0.28052000       0.46942000
    43  C          0.45721900       0.21948000       0.96942000
    44  C          0.95721900       0.28052000       0.03058000
    45  C          0.45721900       0.78052000       0.46942000
    46  C          0.95721900       0.71948000       0.53058000
    47  C          0.54278100       0.78052000       0.03058000
    48  C          0.04278100       0.71948000       0.96942000
    49  H          0.68906000       0.24530000       0.77630000
    50  H          0.18906000       0.25470000       0.22370000
    51  H          0.31094000       0.24530000       0.72370000
    52  H          0.81094000       0.25470000       0.27630000
    53  H          0.31094000       0.75470000       0.22370000
    54  H          0.81094000       0.74530000       0.77630000
    55  H          0.68906000       0.75470000       0.27630000
    56  H          0.18906000       0.74530000       0.72370000
    57  H          0.69486000       0.06730000       0.59140000
    58  H          0.19486000       0.43270000       0.40860000
    59  H          0.30514000       0.06730000       0.90860000
    60  H          0.80514000       0.43270000       0.09140000
    61  H          0.30514000       0.93270000       0.40860000
    62  H          0.80514000       0.56730000       0.59140000
    63  H          0.69486000       0.93270000       0.09140000
    64  H          0.19486000       0.56730000       0.90860000
    65  H          0.65726000       0.44730000       0.49140000
    66  H          0.15726000       0.05270000       0.50860000
    67  H          0.34274000       0.44730000       0.00860000
    68  H          0.84274000       0.05270000      -0.00860000
    69  H          0.34274000       0.55270000       0.50860000
    70  H          0.84274000       0.94730000       0.49140000
    71  H          0.65726000       0.55270000      -0.00860000
    72  H          0.15726000       0.94730000       0.00860000
    73  H          0.61866000       0.06030000       0.54440000
    74  H          0.11866000       0.43970000       0.45560000
    75  H          0.38134000       0.06030000       0.95560000
    76  H          0.88134000       0.43970000       0.04440000
    77  H          0.38134000       0.93970000       0.45560000
    78  H          0.88134000       0.56030000       0.54440000
    79  H          0.61866000       0.93970000       0.04440000
    80  H          0.11866000       0.56030000       0.95560000
    81  H          0.66155000       0.25930000       0.31530000
    82  H          0.16155000       0.24070000       0.68470000
    83  H          0.33845000       0.25930000       0.18470000
    84  H          0.83845000       0.24070000       0.81530000
    85  H          0.33845000       0.74070000       0.68470000
    86  H          0.83845000       0.75930000       0.31530000
    87  H          0.66155000       0.74070000       0.81530000
    88  H          0.16155000       0.75930000       0.18470000
    89  H          0.61566000       0.24130000       0.72730000
    90  H          0.11566000       0.25870000       0.27270000
    91  H          0.38434000       0.24130000       0.77270000
    92  H          0.88434000       0.25870000       0.22730000
    93  H          0.38434000       0.75870000       0.27270000
    94  H          0.88434000       0.74130000       0.72730000
    95  H          0.61566000       0.75870000       0.22730000
    96  H          0.11566000       0.74130000       0.77270000
    97  H          0.73997000       0.28040000       0.41430000
    98  H          0.23997000       0.21960000       0.58570000
    99  H          0.26003000       0.28040000       0.08570000
   100  H          0.76003000       0.21960000       0.91430000
   101  H          0.26003000       0.71960000       0.58570000
   102  H          0.76003000       0.78040000       0.41430000
   103  H          0.73997000       0.71960000       0.91430000
   104  H          0.23997000       0.78040000       0.08570000
   105  H          0.58476000       0.25540000       0.26830000
   106  H          0.08476000       0.24460000       0.73170000
   107  H          0.41524000       0.25540000       0.23170000
   108  H          0.91524000       0.24460000       0.76830000
   109  H          0.41524000       0.74460000       0.73170000
   110  H          0.91524000       0.75540000       0.26830000
   111  H          0.58476000       0.74460000       0.76830000
   112  H          0.08476000       0.75540000       0.23170000
   113  H          0.52156000       0.28640000       0.44950000
   114  H          0.02156000       0.21360000       0.55050000
   115  H          0.47844000       0.28640000       0.05050000
   116  H          0.97844000       0.21360000       0.94950000
   117  H          0.47844000       0.71360000       0.55050000
   118  H          0.97844000       0.78640000       0.44950000
   119  H          0.52156000       0.71360000       0.94950000
   120  H          0.02156000       0.78640000       0.05050000
   121  H          0.54097000       0.25350000       0.69540000
   122  H          0.04097000       0.24650000       0.30460000
   123  H          0.45903000       0.25350000       0.80460000
   124  H          0.95903000       0.24650000       0.19540000
   125  H          0.45903000       0.74650000       0.30460000
   126  H          0.95903000       0.75350000       0.69540000
   127  H          0.54097000       0.74650000       0.19540000
   128  H          0.04097000       0.75350000       0.80460000
   129  H          0.54097000       0.07330000       0.50960000
   130  H          0.04097000       0.42670000       0.49040000
   131  H          0.45903000       0.07330000      -0.00960000
   132  H          0.95903000       0.42670000       0.00960000
   133  H          0.45903000       0.92670000       0.49040000
   134  H          0.95903000       0.57330000       0.50960000
   135  H          0.54097000       0.92670000       0.00960000
   136  H          0.04097000       0.57330000      -0.00960000
   137  H          0.73356000       0.43330000       0.56060000
   138  H          0.23356000       0.06670000       0.43940000
   139  H          0.26644000       0.43330000       0.93940000
   140  H          0.76644000       0.06670000       0.06060000
   141  H          0.26644000       0.56670000       0.43940000
   142  H          0.76644000       0.93330000       0.56060000
   143  H          0.73356000       0.56670000       0.06060000
   144  H          0.23356000       0.93330000       0.93940000
   145  H          0.58326000       0.44730000       0.44140000
   146  H          0.08326000       0.05270000       0.55860000
   147  H          0.41674000       0.44730000       0.05860000
   148  H          0.91674000       0.05270000       0.94140000
   149  H          0.41674000       0.55270000       0.55860000
   150  H          0.91674000       0.94730000       0.44140000
   151  H          0.58326000       0.55270000       0.94140000
   152  H          0.08326000       0.94730000       0.05860000
