data_QODZUG
_symmetry_space_group_name_H-M    'P1'
_symmetry_Int_Tables_number       1
loop_
_symmetry_equiv_pos_site_id
_symmetry_equiv_pos_as_xyz
1 x,y,z
_cell_length_a                   6.0526
_cell_length_b                   4.9195
_cell_length_c                   36.983
_cell_angle_alpha                90.0
_cell_angle_beta                 94.1154
_cell_angle_gamma                90.0
loop_
_atom_site_label
_atom_site_type_symbol
_atom_site_fract_x
_atom_site_fract_y
_atom_site_fract_z
     1  O          0.05404000       0.15596000       0.14602600
     2  O          0.44596000       0.65596000       0.35397400
     3  O          0.94596000       0.84404000       0.85397400
     4  O          0.55404000       0.34404000       0.64602600
     5  C          0.62516000       0.64558000       0.13380700
     6  C          0.87484000       0.14558000       0.36619300
     7  C          0.37484000       0.35442000       0.86619300
     8  C          0.12516000       0.85442000       0.63380700
     9  N          0.27554000       0.52006000       0.11366600
    10  N          0.22446000       0.02006000       0.38633400
    11  N          0.72446000       0.47994000       0.88633400
    12  N          0.77554000      -0.02006000       0.61366600
    13  N          0.76345000       0.51307000       0.02642700
    14  N          0.73655000       0.01307000       0.47357300
    15  N          0.23655000       0.48693000       0.97357300
    16  N          0.26345000      -0.01307000       0.52642700
    17  C          0.45025000       0.47438000       0.13948800
    18  C          0.04975000      -0.02562000       0.36051200
    19  C          0.54975000       0.52562000       0.86051200
    20  C          0.95025000       0.02562000       0.63948800
    21  C          0.34256000       0.71548000       0.09221800
    22  C          0.15744000       0.21548000       0.40778200
    23  C          0.65744000       0.28452000       0.90778200
    24  C          0.84256000       0.78452000       0.59221800
    25  C          0.23636000       0.84029000       0.06117800
    26  C          0.26364000       0.34029000       0.43882200
    27  C          0.76364000       0.15971000       0.93882200
    28  C          0.73636000       0.65971000       0.56117800
    29  C          0.34086000       0.04278000       0.04411800
    30  C          0.15914000       0.54278000       0.45588200
    31  C          0.65914000       0.95722000       0.95588200
    32  C          0.84086000       0.45722000       0.54411800
    33  C          0.55726000       0.12318000       0.05736800
    34  C          0.94274000       0.62318000       0.44263200
    35  C          0.44274000       0.87682000       0.94263200
    36  C          0.05726000       0.37682000       0.55736800
    37  C          0.66366000       0.00278000       0.08685800
    38  C          0.83634000       0.50278000       0.41314200
    39  C          0.33634000      -0.00278000       0.91314200
    40  C          0.16366000       0.49722000       0.58685800
    41  N          0.55535000       0.79926000       0.10378600
    42  N          0.94465000       0.29926000       0.39621400
    43  N          0.44465000       0.20074000       0.89621400
    44  N          0.05535000       0.70074000       0.60378600
    45  C          0.67166000       0.33868000       0.03991800
    46  C          0.82834000       0.83868000       0.46008200
    47  C          0.32834000       0.66132000       0.96008200
    48  C          0.17166000       0.16132000       0.53991800
    49  C          0.43076000       0.26858000       0.16770700
    50  C          0.06924000       0.76858000       0.33229300
    51  C          0.56924000       0.73142000       0.83229300
    52  C          0.93076000       0.23142000       0.66770700
    53  C          0.60876000       0.21548000       0.19315800
    54  C          0.89124000       0.71548000       0.30684200
    55  C          0.39124000       0.78452000       0.80684200
    56  C          0.10876000       0.28452000       0.69315800
    57  C          0.59386000       0.02169000       0.22005800
    58  C          0.90614000       0.52169000       0.27994200
    59  C          0.40614000      -0.02169000       0.77994200
    60  C          0.09386000       0.47831000       0.72005800
    61  C          0.39796000       0.87351000       0.22172800
    62  C          0.10204000       0.37351000       0.27827200
    63  C          0.60204000       0.12649000       0.77827200
    64  C          0.89796000       0.62649000       0.72172800
    65  C          0.21926000       0.92372000       0.19707800
    66  C          0.28074000       0.42372000       0.30292200
    67  C          0.78074000       0.07628000       0.80292200
    68  C          0.71926000       0.57628000       0.69707800
    69  C          0.23546000       0.11888000       0.16974800
    70  C          0.26454000       0.61888000       0.33025200
    71  C          0.76454000       0.88112000       0.83025200
    72  C          0.73546000       0.38112000       0.66974800
    73  H          0.77550000       0.67870000       0.14688000
    74  H          0.72450000       0.17870000       0.35312000
    75  H          0.22450000       0.32130000       0.85312000
    76  H          0.27550000       0.82130000       0.64688000
    77  H          0.82060000       0.04580000       0.09799000
    78  H          0.67940000       0.54580000       0.40201000
    79  H          0.17940000       0.95420000       0.90201000
    80  H          0.32060000       0.45420000       0.59799000
    81  H          0.26450000       0.14070000       0.02127000
    82  H          0.23550000       0.64070000       0.47873000
    83  H          0.73550000       0.85930000       0.97873000
    84  H          0.76450000       0.35930000       0.52127000
    85  H          0.08260000       0.78670000       0.05178000
    86  H          0.41740000       0.28670000       0.44822000
    87  H          0.91740000       0.21330000       0.94822000
    88  H          0.58260000       0.71330000       0.55178000
    89  H          0.74680000       0.32290000       0.19101100
    90  H          0.75320000       0.82290000       0.30898900
    91  H          0.25320000       0.67710000       0.80898900
    92  H          0.24680000       0.17710000       0.69101100
    93  H          0.72070000      -0.00890000       0.23541100
    94  H          0.77930000       0.49110000       0.26458900
    95  H          0.27930000       0.00890000       0.76458900
    96  H          0.22070000       0.50890000       0.73541100
    97  H          0.37760000       0.72620000       0.24059000
    98  H          0.12240000       0.22620000       0.25941000
    99  H          0.62240000       0.27380000       0.75941000
   100  H          0.87760000       0.77380000       0.74059000
   101  H          0.07660000       0.82030000       0.19767000
   102  H          0.42340000       0.32030000       0.30233000
   103  H          0.92340000       0.17970000       0.80233000
   104  H          0.57660000       0.67970000       0.69767000
   105  H          0.10480000       0.31310000       0.12901100
   106  H          0.39520000       0.81310000       0.37098900
   107  H          0.89520000       0.68690000       0.87098900
   108  H          0.60480000       0.18690000       0.62901100
