data_QODZUG01
_symmetry_space_group_name_H-M    'P1'
_symmetry_Int_Tables_number       1
loop_
_symmetry_equiv_pos_site_id
_symmetry_equiv_pos_as_xyz
1 x,y,z
_cell_length_a                   13.6546
_cell_length_b                   7.3433
_cell_length_c                   14.2006
_cell_angle_alpha                90.0
_cell_angle_beta                 130.0542
_cell_angle_gamma                90.0
loop_
_atom_site_label
_atom_site_type_symbol
_atom_site_fract_x
_atom_site_fract_y
_atom_site_fract_z
     1  O          0.24660700       0.48974100       0.86922700
     2  O          0.25339300      -0.01025900       0.63077300
     3  O          0.75339300       0.51025900       0.13077300
     4  O          0.74660700       0.01025900       0.36922700
     5  N          0.20109800       0.40738110       0.66434800
     6  N          0.29890200       0.90738110       0.83565200
     7  N          0.79890200       0.59261890       0.33565200
     8  N          0.70109800       0.09261890       0.16434800
     9  N          0.08939800       0.29812110       0.47336800
    10  N          0.41060200       0.79812110       0.02663200
    11  N          0.91060200       0.70187890       0.52663200
    12  N          0.58939800       0.20187890       0.97336800
    13  N          0.11054100       0.21413150       0.15480100
    14  N          0.38945900       0.71413150       0.34519900
    15  N          0.88945900       0.78586850       0.84519900
    16  N          0.61054100       0.28586850       0.65480100
    17  C          0.05747100       0.31849130       0.70769900
    18  C          0.44252900       0.81849130       0.79230100
    19  C          0.94252900       0.68150870       0.29230100
    20  C          0.55747100       0.18150870       0.20769900
    21  C          0.13572100       0.40195140       0.82431900
    22  C          0.36427900       0.90195140       0.67568100
    23  C          0.86427900       0.59804860       0.17568100
    24  C          0.63572100       0.09804860       0.32431900
    25  C          0.10189110       0.39716150       0.89846100
    26  C          0.39810890       0.89716150       0.60153900
    27  C          0.89810890       0.60283850       0.10153900
    28  C          0.60189110       0.10283850       0.39846100
    29  C         -0.00887110       0.30982150       0.85796100
    30  C          0.50887110       0.80982150       0.64203900
    31  C          0.00887110       0.69017850       0.14203900
    32  C          0.49112890       0.19017850       0.35796100
    33  C          0.91238890       0.22597150       0.74284100
    34  C          0.58761110       0.72597150       0.75715900
    35  C          0.08761110       0.77402850       0.25715900
    36  C          0.41238890       0.27402850       0.24284100
    37  C          0.94561900       0.23087150       0.66899100
    38  C          0.55438100       0.73087150       0.83100900
    39  C          0.05438100       0.76912850       0.33100900
    40  C          0.44561900       0.26912850       0.16899100
    41  C          0.08957100       0.32489130       0.62703900
    42  C          0.41042900       0.82489130       0.87296100
    43  C          0.91042900       0.67510870       0.37296100
    44  C          0.58957100       0.17510870       0.12703900
    45  C          0.01957100       0.25795140       0.50973100
    46  C          0.48042900       0.75795140      -0.00973100
    47  C          0.98042900       0.74204860       0.49026900
    48  C          0.51957100       0.24204860       0.00973100
    49  C          0.20009900       0.38958130       0.57049900
    50  C          0.29990100       0.88958130       0.92950100
    51  C          0.79990100       0.61041870       0.42950100
    52  C          0.70009900       0.11041870       0.07049900
    53  C          0.28908100       0.44314150       0.55625100
    54  C          0.21091900       0.94314150       0.94374900
    55  C          0.71091900       0.55685850       0.44374900
    56  C          0.78908100       0.05685850       0.05625100
    57  C          0.26711100       0.40204140       0.45045100
    58  C          0.23288900       0.90204140       0.04954900
    59  C          0.73288900       0.59795860       0.54954900
    60  C          0.76711100       0.09795860       0.95045100
    61  C          0.15370100       0.30532140       0.35465100
    62  C          0.34629900       0.80532140       0.14534900
    63  C          0.84629900       0.69467860       0.64534900
    64  C          0.65370100       0.19467860       0.85465100
    65  C          0.06591100       0.25612140       0.36676100
    66  C          0.43408900       0.75612140       0.13323900
    67  C          0.93408900       0.74387860       0.63323900
    68  C          0.56591100       0.24387860       0.86676100
    69  C          0.12910110       0.25655150       0.24281100
    70  C          0.37089890       0.75655150       0.25718900
    71  C          0.87089890       0.74344850       0.75718900
    72  C          0.62910110       0.24344850       0.74281100
    73  H          0.93838700       0.19701800       0.45471200
    74  H          0.56161300       0.69701800       0.04528800
    75  H          0.06161300       0.80298200       0.54528800
    76  H          0.43838700       0.30298200       0.95471200
    77  H         -0.01561200       0.19121700       0.30431200
    78  H          0.51561200       0.69121700       0.19568800
    79  H          0.01561200       0.80878300       0.69568800
    80  H          0.48438800       0.30878300       0.80431200
    81  H          0.36421200       0.51061600       0.62101100
    82  H          0.13578800       0.01061600       0.87898900
    83  H          0.63578800       0.48938400       0.37898900
    84  H          0.86421200      -0.01061600       0.12101100
    85  H          0.15911100       0.46131800       0.97911200
    86  H          0.34088900       0.96131800       0.52088800
    87  H          0.84088900       0.53868200       0.02088800
    88  H          0.65911100       0.03868200       0.47911200
    89  H          0.96668800       0.30721800       0.90951200
    90  H          0.53331200       0.80721800       0.59048800
    91  H          0.03331200       0.69278200       0.09048800
    92  H          0.46668800       0.19278200       0.40951200
    93  H          0.88748700       0.17121700       0.58641300
    94  H          0.61251300       0.67121700       0.91358700
    95  H          0.11251300       0.82878300       0.41358700
    96  H          0.38748700       0.32878300       0.08641300
    97  H          0.83088700       0.16451800       0.71131200
    98  H          0.66911300       0.66451800       0.78868800
    99  H          0.16911300       0.83548200       0.28868800
   100  H          0.33088700       0.33548200       0.21131200
   101  H          0.32891100       0.43781700       0.43991100
   102  H          0.17108900       0.93781700       0.06008900
   103  H          0.67108900       0.56218300       0.56008900
   104  H          0.82891100       0.06218300       0.93991100
   105  H          0.25431400       0.48520000       0.80531500
   106  H          0.24568600      -0.01480000       0.69468500
   107  H          0.74568600       0.51480000       0.19468500
   108  H          0.75431400       0.01480000       0.30531500
