data_QODZUG02
_symmetry_space_group_name_H-M    'P1'
_symmetry_Int_Tables_number       1
loop_
_symmetry_equiv_pos_site_id
_symmetry_equiv_pos_as_xyz
1 x,y,z
_cell_length_a                   3.81961
_cell_length_b                   11.3563
_cell_length_c                   25.2467
_cell_angle_alpha                90.0
_cell_angle_beta                 93.19601
_cell_angle_gamma                90.0
loop_
_atom_site_label
_atom_site_type_symbol
_atom_site_fract_x
_atom_site_fract_y
_atom_site_fract_z
     1  O          0.83863000       0.67462110       0.18329500
     2  O          0.66137000       0.17462110       0.31670500
     3  O          0.16137000       0.32537890       0.81670500
     4  O          0.33863000       0.82537890       0.68329500
     5  C          0.33694000       0.39160150       0.26091700
     6  C          0.16306000       0.89160150       0.23908300
     7  C          0.66306000       0.60839850       0.73908300
     8  C          0.83694000       0.10839850       0.76091700
     9  N          0.58724000       0.57286120       0.26631600
    10  N          0.91276000       0.07286120       0.23368400
    11  N          0.41276000       0.42713880       0.73368400
    12  N          0.08724000       0.92713880       0.76631600
    13  N          0.01384000       0.33779150       0.48696700
    14  N          0.48616000       0.83779150       0.01303300
    15  N         -0.01384000       0.66220850       0.51303300
    16  N          0.51384000       0.16220850       0.98696700
    17  C          0.49414000       0.47939140       0.23296700
    18  C          0.00586000       0.97939140       0.26703300
    19  C          0.50586000       0.52060860       0.76703300
    20  C         -0.00586000       0.02060860       0.73296700
    21  N          0.33174000       0.43148120       0.31237500
    22  N          0.16826000       0.93148120       0.18762500
    23  N          0.66826000       0.56851880       0.68762500
    24  N          0.83174000       0.06851880       0.81237500
    25  C          0.21134000       0.37844150       0.35660700
    26  C          0.28866000       0.87844150       0.14339300
    27  C          0.78866000       0.62155850       0.64339300
    28  C          0.71134000       0.12155850       0.85660700
    29  C          0.24264000       0.43790160       0.40354700
    30  C          0.25736000       0.93790160       0.09645300
    31  C          0.75736000       0.56209840       0.59645300
    32  C          0.74264000       0.06209840       0.90354700
    33  C          0.39734000       0.55213160       0.40721700
    34  C          0.10266000       0.05213160       0.09278300
    35  C          0.60266000       0.44786840       0.59278300
    36  C          0.89734000       0.94786840       0.90721700
    37  C          0.51555000       0.60371160       0.36301700
    38  C         -0.01555000       0.10371160       0.13698300
    39  C          0.48445000       0.39628840       0.63698300
    40  C          0.01555000       0.89628840       0.86301700
    41  C          0.48724000       0.54343150       0.31408700
    42  C          0.01276000       0.04343150       0.18591300
    43  C          0.51276000       0.45656850       0.68591300
    44  C         -0.01276000       0.95656850       0.81408700
    45  C          0.11495000       0.38181150       0.45001700
    46  C          0.38505000       0.88181150       0.04998300
    47  C          0.88505000       0.61818850       0.54998300
    48  C          0.61495000       0.11818850       0.95001700
    49  C          0.57104000       0.48087150       0.17693700
    50  C          0.92896000       0.98087150       0.32306300
    51  C          0.42896000       0.51912850       0.82306300
    52  C          0.07104000       0.01912850       0.67693700
    53  C          0.73604000       0.57843150       0.15411700
    54  C          0.76396000       0.07843150       0.34588300
    55  C          0.26396000       0.42156850       0.84588300
    56  C          0.23604000       0.92156850       0.65411700
    57  C          0.79915000       0.57862170       0.10035700
    58  C          0.70085000       0.07862170       0.39964300
    59  C          0.20085000       0.42137830       0.89964300
    60  C          0.29915000       0.92137830       0.60035700
    61  C          0.70555000       0.48320170       0.06898800
    62  C          0.79445000       0.98320170       0.43101200
    63  C          0.29445000       0.51679830       0.93101200
    64  C          0.20555000       0.01679830       0.56898800
    65  C          0.54535000       0.38488170       0.09059700
    66  C          0.95465000       0.88488170       0.40940300
    67  C          0.45465000       0.61511830       0.90940300
    68  C          0.04535000       0.11511830       0.59059700
    69  C          0.47905000       0.38579160       0.14393700
    70  C          0.02095000       0.88579160       0.35606300
    71  C          0.52095000       0.61420840       0.85606300
    72  C         -0.02095000       0.11420840       0.64393700
    73  H          0.23140000       0.31591500       0.25046000
    74  H          0.26860000       0.81591500       0.24954000
    75  H          0.76860000       0.68408500       0.74954000
    76  H          0.73140000       0.18408500       0.75046000
    77  H          0.09640000       0.30191600       0.35057000
    78  H          0.40360000       0.80191600       0.14943000
    79  H          0.90360000       0.69808400       0.64943000
    80  H          0.59640000       0.19808400       0.85057000
    81  H          0.41550000       0.59061700       0.44117000
    82  H          0.08450000       0.09061700       0.05883000
    83  H          0.58450000       0.40938300       0.55883000
    84  H          0.91550000       0.90938300       0.94117000
    85  H          0.62750000       0.67701800       0.36327000
    86  H          0.87250000       0.17701800       0.13673000
    87  H          0.37250000       0.32298200       0.63673000
    88  H          0.12750000       0.82298200       0.86327000
    89  H          0.91250000       0.64841800       0.08507000
    90  H          0.58750000       0.14841800       0.41493000
    91  H          0.08750000       0.35158200       0.91493000
    92  H          0.41250000       0.85158200       0.58507000
    93  H          0.75750000       0.48571600       0.03118000
    94  H          0.74250000       0.98571600       0.46882000
    95  H          0.24250000       0.51428400       0.96882000
    96  H          0.25750000       0.01428400       0.53118000
    97  H          0.47850000       0.31801700       0.06757000
    98  H          0.02150000       0.81801700       0.43243000
    99  H          0.52150000       0.68198300       0.93243000
   100  H         -0.02150000       0.18198300       0.56757000
   101  H          0.36540000       0.31541700       0.16087000
   102  H          0.13460000       0.81541700       0.33913000
   103  H          0.63460000       0.68458300       0.83913000
   104  H          0.86540000       0.18458300       0.66087000
   105  H          0.79060000       0.65951900       0.21909000
   106  H          0.70940000       0.15951900       0.28091000
   107  H          0.20940000       0.34048100       0.78091000
   108  H          0.29060000       0.84048100       0.71909000
