data_QOGNEF
_symmetry_space_group_name_H-M    'P1'
_symmetry_Int_Tables_number       1
loop_
_symmetry_equiv_pos_site_id
_symmetry_equiv_pos_as_xyz
1 x,y,z
_cell_length_a                   7.60373
_cell_length_b                   33.904614
_cell_length_c                   11.94046
_cell_angle_alpha                90.0
_cell_angle_beta                 93.0582
_cell_angle_gamma                90.0
loop_
_atom_site_label
_atom_site_type_symbol
_atom_site_fract_x
_atom_site_fract_y
_atom_site_fract_z
     1  S          0.73198820       0.10476300       0.36742100
     2  S          0.26801180       0.60476300       0.13257900
     3  S          0.26801180       0.89523700       0.63257900
     4  S          0.73198820       0.39523700       0.86742100
     5  N          0.67335000       0.15252900       0.37693000
     6  N          0.32665000       0.65252900       0.12307000
     7  N          0.32665000       0.84747100       0.62307000
     8  N          0.67335000       0.34747100       0.87693000
     9  O          0.56055000       0.16311900       0.19532000
    10  O          0.43945000       0.66311900       0.30468000
    11  O          0.43945000       0.83688100       0.80468000
    12  O          0.56055000       0.33688100       0.69532000
    13  C          0.60714000       0.17565130       0.28614000
    14  C          0.39286000       0.67565130       0.21386000
    15  C          0.39286000       0.82434870       0.71386000
    16  C          0.60714000       0.32434870       0.78614000
    17  O          0.77866000       0.16348800       0.56102000
    18  O          0.22134000       0.66348800       0.93898000
    19  O          0.22134000       0.83651200       0.43898000
    20  O          0.77866000       0.33651200       0.06102000
    21  C          0.72194000       0.17629130       0.47264000
    22  C          0.27806000       0.67629130       0.02736000
    23  C          0.27806000       0.82370870       0.52736000
    24  C          0.72194000       0.32370870       0.97264000
    25  C          0.68464000       0.21735130       0.43614000
    26  C          0.31536000       0.71735130       0.06386000
    27  C          0.31536000       0.78264870       0.56386000
    28  C          0.68464000       0.28264870       0.93614000
    29  C          0.71684000       0.25195140       0.49454000
    30  C          0.28316000       0.75195140       0.00546000
    31  C          0.28316000       0.74804860       0.50546000
    32  C          0.71684000       0.24804860      -0.00546000
    33  H          0.76650000       0.25200000       0.56920000
    34  H          0.23350000       0.75200000       0.93080000
    35  H          0.23350000       0.74800000       0.43080000
    36  H          0.76650000       0.24800000       0.06920000
    37  C          0.67314000       0.28664140       0.43854000
    38  C          0.32686000       0.78664140       0.06146000
    39  C          0.32686000       0.71335860       0.56146000
    40  C          0.67314000       0.21335860       0.93854000
    41  H          0.69390000       0.31110000       0.47560000
    42  H          0.30610000       0.81110000       0.02440000
    43  H          0.30610000       0.68890000       0.52440000
    44  H          0.69390000       0.18890000       0.97560000
    45  C          0.60043000       0.28659140       0.33054000
    46  C          0.39957000       0.78659140       0.16946000
    47  C          0.39957000       0.71340860       0.66946000
    48  C          0.60043000       0.21340860       0.83054000
    49  H          0.57150000       0.31100000       0.29490000
    50  H          0.42850000       0.81100000       0.20510000
    51  H          0.42850000       0.68900000       0.70510000
    52  H          0.57150000       0.18900000       0.79490000
    53  C          0.56874000       0.25163140       0.27244000
    54  C          0.43126000       0.75163140       0.22756000
    55  C          0.43126000       0.74836860       0.72756000
    56  C          0.56874000       0.24836860       0.77244000
    57  H          0.51780000       0.25150000       0.19800000
    58  H          0.48220000       0.75150000       0.30200000
    59  H          0.48220000       0.74850000       0.80200000
    60  H          0.51780000       0.24850000       0.69800000
    61  C          0.61414000       0.21714130       0.32714000
    62  C          0.38586000       0.71714130       0.17286000
    63  C          0.38586000       0.78285870       0.67286000
    64  C          0.61414000       0.28285870       0.82714000
    65  S          0.51861820       0.07314300       0.40542100
    66  S          0.48138180       0.57314300       0.09457900
    67  S          0.48138180       0.92685700       0.59457900
    68  S          0.51861820       0.42685700       0.90542100
    69  N          0.52715000       0.07114100       0.54643000
    70  N          0.47285000       0.57114100       0.95357000
    71  N          0.47285000       0.92885900       0.45357000
    72  N          0.52715000       0.42885900       0.04643000
    73  O          0.39525000       0.13174900       0.57763000
    74  O          0.60475000       0.63174900       0.92237000
    75  O          0.60475000       0.86825100       0.42237000
    76  O          0.39525000       0.36825100       0.07763000
    77  C          0.46133000       0.10175150       0.61434000
    78  C          0.53867000       0.60175150       0.88566000
    79  C          0.53867000       0.89824850       0.38566000
    80  C          0.46133000       0.39824850       0.11434000
    81  O          0.67106000       0.01118800       0.57832000
    82  O          0.32894000       0.51118800       0.92168000
    83  O          0.32894000       0.98881200       0.42168000
    84  O          0.67106000       0.48881200       0.07832000
    85  C          0.60054000       0.03997130       0.61424000
    86  C          0.39946000       0.53997130       0.88576000
    87  C          0.39946000       0.96002870       0.38576000
    88  C          0.60054000       0.46002870       0.11424000
    89  C          0.57174000       0.05189130       0.73084000
    90  C          0.42826000       0.55189130       0.76916000
    91  C          0.42826000       0.94810870       0.26916000
    92  C          0.57174000       0.44810870       0.23084000
    93  C          0.61594000       0.03171120       0.82854000
    94  C          0.38406000       0.53171120       0.67146000
    95  C          0.38406000       0.96828880       0.17146000
    96  C          0.61594000       0.46828880       0.32854000
    97  H          0.67170000       0.00660000       0.82790000
    98  H          0.32830000       0.50660000       0.67210000
    99  H          0.32830000       0.99340000       0.17210000
   100  H          0.67170000       0.49340000       0.32790000
   101  C          0.57524000       0.04988140       0.92784000
   102  C          0.42476000       0.54988140       0.57216000
   103  C          0.42476000       0.95011860       0.07216000
   104  C          0.57524000       0.45011860       0.42784000
   105  H          0.60500000       0.03700000      -0.00310000
   106  H          0.39500000       0.53700000       0.50310000
   107  H          0.39500000       0.96300000       0.00310000
   108  H          0.60500000       0.46300000       0.49690000
   109  C          0.49254000       0.08621140       0.92954000
   110  C          0.50746000       0.58621140       0.57046000
   111  C          0.50746000       0.91378860       0.07046000
   112  C          0.49254000       0.41378860       0.42954000
   113  H          0.46500000       0.09760000      -0.00090000
   114  H          0.53500000       0.59760000       0.50090000
   115  H          0.53500000       0.90240000       0.00090000
   116  H          0.46500000       0.40240000       0.49910000
   117  C          0.44964000       0.10622130       0.83064000
   118  C          0.55036000       0.60622130       0.66936000
   119  C          0.55036000       0.89377870       0.16936000
   120  C          0.44964000       0.39377870       0.33064000
   121  H          0.39430000       0.13130000       0.83090000
   122  H          0.60570000       0.63130000       0.66910000
   123  H          0.60570000       0.86870000       0.16910000
   124  H          0.39430000       0.36870000       0.33090000
   125  C          0.49044000       0.08822130       0.73154000
   126  C          0.50956000       0.58822130       0.76846000
   127  C          0.50956000       0.91177870       0.26846000
   128  C          0.49044000       0.41177870       0.23154000
   129  S          0.16960180       0.10948400       0.17982100
   130  S          0.83039820       0.60948400       0.32017900
   131  S          0.83039820       0.89051600       0.82017900
   132  S          0.16960180       0.39051600       0.67982100
   133  N          0.15635000       0.15862900       0.16443000
   134  N          0.84365000       0.65862900       0.33557000
   135  N          0.84365000       0.84137100       0.83557000
   136  N          0.15635000       0.34137100       0.66443000
   137  O          0.26244000       0.16513800       0.98622000
   138  O          0.73756000       0.66513800       0.51378000
   139  O          0.73756000       0.83486200       0.01378000
   140  O          0.26244000       0.33486200       0.48622000
   141  C          0.20966000       0.17991130       0.06914000
   142  C          0.79034000       0.67991130       0.43086000
   143  C          0.79034000       0.82008870       0.93086000
   144  C          0.20966000       0.32008870       0.56914000
   145  O          0.03264000       0.17349800       0.33352000
   146  O          0.96736000       0.67349800       0.16648000
   147  O          0.96736000       0.82650200       0.66648000
   148  O          0.03264000       0.32650200       0.83352000
   149  C          0.08996000       0.18402130       0.24624000
   150  C          0.91004000       0.68402130       0.25376000
   151  C          0.91004000       0.81597870       0.75376000
   152  C          0.08996000       0.31597870       0.74624000
   153  C          0.10906000       0.22442140       0.20054000
   154  C          0.89094000       0.72442140       0.29946000
   155  C          0.89094000       0.77557860       0.79946000
   156  C          0.10906000       0.27557860       0.70054000
   157  C          0.06496000       0.25976140       0.24794000
   158  C          0.93504000       0.75976140       0.25206000
   159  C          0.93504000       0.74023860       0.75206000
   160  C          0.06496000       0.24023860       0.74794000
   161  H          0.01290000       0.26100000       0.31840000
   162  H         -0.01290000       0.76100000       0.18160000
   163  H         -0.01290000       0.73900000       0.68160000
   164  H          0.01290000       0.23900000       0.81840000
   165  C          0.10047000       0.29345140       0.18754000
   166  C          0.89953000       0.79345140       0.31246000
   167  C          0.89953000       0.70654860       0.81246000
   168  C          0.10047000       0.20654860       0.68754000
   169  H          0.07480000       0.31860000       0.21800000
   170  H          0.92520000       0.81860000       0.28200000
   171  H          0.92520000       0.68140000       0.78200000
   172  H          0.07480000       0.18140000       0.71800000
   173  C          0.17297000       0.29128150       0.08274000
   174  C          0.82703000       0.79128150       0.41726000
   175  C          0.82703000       0.70871850       0.91726000
   176  C          0.17297000       0.20871850       0.58274000
   177  H          0.19380000       0.31490000       0.04260000
   178  H          0.80620000       0.81490000       0.45740000
   179  H          0.80620000       0.68510000       0.95740000
   180  H          0.19380000       0.18510000       0.54260000
   181  C          0.21516000       0.25509140       0.03614000
   182  C          0.78484000       0.75509140       0.46386000
   183  C          0.78484000       0.74490860       0.96386000
   184  C          0.21516000       0.24490860       0.53614000
   185  H          0.26510000       0.25340000       0.96500000
   186  H          0.73490000       0.75340000       0.53500000
   187  H          0.73490000       0.74660000       0.03500000
   188  H          0.26510000       0.24660000       0.46500000
   189  C          0.18136000       0.22192130       0.09724000
   190  C          0.81864000       0.72192130       0.40276000
   191  C          0.81864000       0.77807870       0.90276000
   192  C          0.18136000       0.27807870       0.59724000
   193  S          0.94757810       0.08796400       0.10208100
   194  S          0.05242190       0.58796400       0.39791900
   195  S          0.05242190       0.91203600       0.89791900
   196  S          0.94757810       0.41203600       0.60208100
   197  N          0.00365000       0.07794110       0.97063000
   198  N         -0.00365000       0.57794110       0.52937000
   199  N         -0.00365000       0.92205890       0.02937000
   200  N          0.00365000       0.42205890       0.47063000
   201  O          0.16265000       0.02058900       0.00883000
   202  O          0.83735000       0.52058900       0.49117000
   203  O          0.83735000       0.97941100      -0.00883000
   204  O          0.16265000       0.47941100       0.50883000
   205  C          0.09487000       0.04332140       0.94224000
   206  C          0.90513000       0.54332140       0.55776000
   207  C          0.90513000       0.95667860       0.05776000
   208  C          0.09487000       0.45667860       0.44224000
   209  O          0.88766000       0.13295900       0.87692000
   210  O          0.11234000       0.63295900       0.62308000
   211  O          0.11234000       0.86704100       0.12308000
   212  O          0.88766000       0.36704100       0.37692000
   213  C          0.95854000       0.10112140       0.87424000
   214  C          0.04146000       0.60112140       0.62576000
   215  C          0.04146000       0.89887860       0.12576000
   216  C          0.95854000       0.39887860       0.37424000
   217  C          0.01456000       0.07772120       0.77844000
   218  C         -0.01456000       0.57772120       0.72156000
   219  C         -0.01456000       0.92227880       0.22156000
   220  C          0.01456000       0.42227880       0.27844000
   221  C         -0.00036000       0.08596130       0.66514000
   222  C          0.00036000       0.58596130       0.83486000
   223  C          0.00036000       0.91403870       0.33486000
   224  C         -0.00036000       0.41403870       0.16514000
   225  H          0.94750000       0.10980000       0.63800000
   226  H          0.05250000       0.60980000       0.86200000
   227  H          0.05250000       0.89020000       0.36200000
   228  H          0.94750000       0.39020000       0.13800000
   229  C          0.06387000       0.05821160       0.59214000
   230  C          0.93613000       0.55821160       0.90786000
   231  C          0.93613000       0.94178840       0.40786000
   232  C          0.06387000       0.44178840       0.09214000
   233  H          0.05680000       0.06310000       0.51360000
   234  H          0.94320000       0.56310000       0.98640000
   235  H          0.94320000       0.93690000       0.48640000
   236  H          0.05680000       0.43690000       0.01360000
   237  C          0.13817000       0.02335150       0.63354000
   238  C          0.86183000       0.52335150       0.86646000
   239  C          0.86183000       0.97664850       0.36646000
   240  C          0.13817000       0.47664850       0.13354000
   241  H          0.17800000       0.00430000       0.58230000
   242  H          0.82200000       0.50430000       0.91770000
   243  H          0.82200000       0.99570000       0.41770000
   244  H          0.17800000       0.49570000       0.08230000
   245  C          0.15566000       0.01562130       0.74714000
   246  C          0.84434000       0.51562130       0.75286000
   247  C          0.84434000       0.98437870       0.25286000
   248  C          0.15566000       0.48437870       0.24714000
   249  H          0.20920000       0.99200000       0.77490000
   250  H          0.79080000       0.49200000       0.72510000
   251  H          0.79080000       0.00800000       0.22510000
   252  H          0.20920000       0.50800000       0.27490000
   253  C          0.09236000       0.04351130       0.81854000
   254  C          0.90764000       0.54351130       0.68146000
   255  C          0.90764000       0.95648870       0.18146000
   256  C          0.09236000       0.45648870       0.31854000
