data_QOGNEF01
_symmetry_space_group_name_H-M    'P1'
_symmetry_Int_Tables_number       1
loop_
_symmetry_equiv_pos_site_id
_symmetry_equiv_pos_as_xyz
1 x,y,z
_cell_length_a                   7.12982
_cell_length_b                   30.724713
_cell_length_c                   6.86912
_cell_angle_alpha                90.0
_cell_angle_beta                 90.0
_cell_angle_gamma                90.0
loop_
_atom_site_label
_atom_site_type_symbol
_atom_site_fract_x
_atom_site_fract_y
_atom_site_fract_z
     1  S          0.91253860       0.15565300       0.03776180
     2  S          0.08746140       0.84434700       0.53776180
     3  S          0.58746140       0.65565300       0.53776180
     4  S          0.41253860       0.34434700       0.03776180
     5  N          0.86246000       0.10631100       0.13135000
     6  N          0.13754000       0.89368900       0.63135000
     7  N          0.63754000       0.60631100       0.63135000
     8  N          0.36246000       0.39368900       0.13135000
     9  C          0.90864000       0.09242120       0.32177000
    10  C          0.09136000       0.90757880       0.82177000
    11  C          0.59136000       0.59242120       0.82177000
    12  C          0.40864000       0.40757880       0.32177000
    13  O         -0.01074000       0.11402800       0.43994000
    14  O          0.01074000       0.88597200       0.93994000
    15  O          0.51074000       0.61402800       0.93994000
    16  O          0.48926000       0.38597200       0.43994000
    17  C          0.76974000       0.07319130       0.02368000
    18  C          0.23026000       0.92680870       0.52368000
    19  C          0.73026000       0.57319130       0.52368000
    20  C          0.26974000       0.42680870       0.02368000
    21  O          0.71786000       0.07721800       0.85775000
    22  O          0.28214000       0.92278200       0.35775000
    23  O          0.78214000       0.57721800       0.35775000
    24  O          0.21786000       0.42278200       0.85775000
    25  C          0.75855000       0.03558120       0.15496000
    26  C          0.24145000       0.96441880       0.65496000
    27  C          0.74145000       0.53558120       0.65496000
    28  C          0.25855000       0.46441880       0.15496000
    29  C          0.68414000       0.99454870       0.12198000
    30  C          0.31586000       0.00545130       0.62198000
    31  C          0.81586000       0.49454870       0.62198000
    32  C          0.18414000       0.50545130       0.12198000
    33  C          0.69434000       0.96496860       0.27459000
    34  C          0.30566000       0.03503140       0.77459000
    35  C          0.80566000       0.46496860       0.77459000
    36  C          0.19434000       0.53503140       0.27459000
    37  C          0.77184000       0.97601850       0.45298000
    38  C          0.22816000       0.02398150       0.95298000
    39  C          0.72816000       0.47601850       0.95298000
    40  C          0.27184000       0.52398150       0.45298000
    41  C          0.84414000       0.01772140       0.48606000
    42  C          0.15586000       0.98227860      -0.01394000
    43  C          0.65586000       0.51772140      -0.01394000
    44  C          0.34414000       0.48227860       0.48606000
    45  C          0.83645000       0.04685120       0.33197000
    46  C          0.16355000       0.95314880       0.83197000
    47  C          0.66355000       0.54685120       0.83197000
    48  C          0.33645000       0.45314880       0.33197000
    49  S          0.17069150       0.15018300       0.91384830
    50  S          0.82930850       0.84981700       0.41384830
    51  S          0.32930850       0.65018300       0.41384830
    52  S          0.67069150       0.34981700       0.91384830
    53  N          0.31474000       0.16844900       0.09065000
    54  N          0.68526000       0.83155100       0.59065000
    55  N          0.18526000       0.66844900       0.59065000
    56  N          0.81474000       0.33155100       0.09065000
    57  C          0.39416000       0.14221130       0.23896000
    58  C          0.60584000       0.85778870       0.73896000
    59  C          0.10584000       0.64221130       0.73896000
    60  C          0.89416000       0.35778870       0.23896000
    61  O          0.39614000       0.10280800       0.23964000
    62  O          0.60386000       0.89719200       0.73964000
    63  O          0.10386000       0.60280800       0.73964000
    64  O          0.89614000       0.39719200       0.23964000
    65  C          0.32965000       0.21368120       0.13786000
    66  C          0.67035000       0.78631880       0.63786000
    67  C          0.17035000       0.71368120       0.63786000
    68  C          0.82965000       0.28631880       0.13786000
    69  O          0.26453000       0.24237800       0.04104000
    70  O          0.73547000       0.75762200       0.54104000
    71  O          0.23547000       0.74237800       0.54104000
    72  O          0.76453000       0.25762200       0.04104000
    73  C          0.42865000       0.21544120       0.32676000
    74  C          0.57135000       0.78455880       0.82676000
    75  C          0.07135000       0.71544120       0.82676000
    76  C          0.92865000       0.28455880       0.32676000
    77  C          0.47205000       0.25079110       0.44126000
    78  C          0.52795000       0.74920890       0.94126000
    79  C          0.02795000       0.75079110       0.94126000
    80  C          0.97205000       0.24920890       0.44126000
    81  C          0.55345000       0.24308140       0.62186000
    82  C          0.44655000       0.75691860       0.12186000
    83  C          0.94655000       0.74308140       0.12186000
    84  C          0.05345000       0.25691860       0.62186000
    85  C          0.59116000       0.20127140       0.67946000
    86  C          0.40884000       0.79872860       0.17946000
    87  C          0.90884000       0.70127140       0.17946000
    88  C          0.09116000       0.29872860       0.67946000
    89  C          0.55165000       0.16499130       0.56727000
    90  C          0.44835000       0.83500870       0.06727000
    91  C          0.94835000       0.66499130       0.06727000
    92  C          0.05165000       0.33500870       0.56727000
    93  C          0.46725000       0.17306110       0.39086000
    94  C          0.53275000       0.82693890       0.89086000
    95  C          0.03275000       0.67306110       0.89086000
    96  C          0.96725000       0.32693890       0.39086000
    97  H          0.62890000       0.98700000       0.00070000
    98  H          0.37110000       0.01300000       0.50070000
    99  H          0.87110000       0.48700000       0.50070000
   100  H          0.12890000       0.51300000       0.00070000
   101  H          0.64700000       0.93640000       0.25610000
   102  H          0.35300000       0.06360000       0.75610000
   103  H          0.85300000       0.43640000       0.75610000
   104  H          0.14700000       0.56360000       0.25610000
   105  H          0.77590000       0.95500000       0.55420000
   106  H          0.22410000       0.04500000       0.05420000
   107  H          0.72410000       0.45500000       0.05420000
   108  H          0.27590000       0.54500000       0.55420000
   109  H          0.89620000       0.02570000       0.60820000
   110  H          0.10380000       0.97430000       0.10820000
   111  H          0.60380000       0.52570000       0.10820000
   112  H          0.39620000       0.47430000       0.60820000
   113  H          0.44710000       0.27960000       0.39820000
   114  H          0.55290000       0.72040000       0.89820000
   115  H          0.05290000       0.77960000       0.89820000
   116  H          0.94710000       0.22040000       0.39820000
   117  H          0.58300000       0.26680000       0.70520000
   118  H          0.41700000       0.73320000       0.20520000
   119  H          0.91700000       0.76680000       0.20520000
   120  H          0.08300000       0.23320000       0.70520000
   121  H          0.64750000       0.19700000       0.80320000
   122  H          0.35250000       0.80300000       0.30320000
   123  H          0.85250000       0.69700000       0.30320000
   124  H          0.14750000       0.30300000       0.80320000
   125  H          0.58090000       0.13630000       0.60940000
   126  H          0.41910000       0.86370000       0.10940000
   127  H          0.91910000       0.63630000       0.10940000
   128  H          0.08090000       0.36370000       0.60940000
