data_QOGNEF02
_symmetry_space_group_name_H-M    'P1'
_symmetry_Int_Tables_number       1
loop_
_symmetry_equiv_pos_site_id
_symmetry_equiv_pos_as_xyz
1 x,y,z
_cell_length_a                   13.50522
_cell_length_b                   7.874001
_cell_length_c                   29.20505
_cell_angle_alpha                90.0
_cell_angle_beta                 98.96405
_cell_angle_gamma                90.0
loop_
_atom_site_label
_atom_site_type_symbol
_atom_site_fract_x
_atom_site_fract_y
_atom_site_fract_z
     1  S          0.75579600       0.57462600       0.92812984
     2  S          0.24420400       0.07462600       0.57187016
     3  S          0.24420400       0.42537400       0.07187016
     4  S          0.75579600       0.92537400       0.42812984
     5  N          0.85586890       0.62029190       0.96805500
     6  N          0.14413110       0.12029190       0.53194500
     7  N          0.14413110       0.37970810       0.03194500
     8  N          0.85586890       0.87970810       0.46805500
     9  C          0.85952860       0.58882000       0.01631600
    10  C          0.14047140       0.08882000       0.48368400
    11  C          0.14047140       0.41118000       0.98368400
    12  C          0.85952860       0.91118000       0.51631600
    13  O          0.79529900       0.51447170       0.03304500
    14  O          0.20470100       0.01447170       0.46695500
    15  O          0.20470100       0.48552830       0.96695500
    16  O          0.79529900      -0.01447170       0.53304500
    17  C          0.93919860       0.72052000       0.95895300
    18  C          0.06080140       0.22052000       0.54104700
    19  C          0.06080140       0.27948000       0.04104700
    20  C          0.93919860       0.77948000       0.45895300
    21  O          0.95076900       0.77010170       0.92130500
    22  O          0.04923100       0.27010170       0.57869500
    23  O          0.04923100       0.22989830       0.07869500
    24  O          0.95076900       0.72989830       0.42130500
    25  C          0.00065140       0.74592000       0.00528700
    26  C         -0.00065140       0.24592000       0.49471300
    27  C         -0.00065140       0.25408000       0.99471300
    28  C          0.00065140       0.75408000       0.50528700
    29  C          0.08970140       0.83472000       0.01665700
    30  C          0.91029860       0.33472000       0.48334300
    31  C          0.91029860       0.16528000       0.98334300
    32  C          0.08970140       0.66528000       0.51665700
    33  C          0.13082150       0.84142000       0.06334700
    34  C          0.86917850       0.34142000       0.43665300
    35  C          0.86917850       0.15858000       0.93665300
    36  C          0.13082150       0.65858000       0.56334700
    37  C          0.08536160       0.76113000       0.09709700
    38  C          0.91463840       0.26113000       0.40290300
    39  C          0.91463840       0.23887000       0.90290300
    40  C          0.08536160       0.73887000       0.59709700
    41  C         -0.00435150       0.67222000       0.08535700
    42  C          0.00435150       0.17222000       0.41464300
    43  C          0.00435150       0.32778000       0.91464300
    44  C         -0.00435150       0.82778000       0.58535700
    45  C          0.95396860       0.66742000       0.03898600
    46  C          0.04603140       0.16742000       0.46101400
    47  C          0.04603140       0.33258000       0.96101400
    48  C          0.95396860       0.83258000       0.53898600
    49  S          0.67699600       0.79638600       0.92184784
    50  S          0.32300400       0.29638600       0.57815216
    51  S          0.32300400       0.20361400       0.07815216
    52  S          0.67699600       0.70361400       0.42184784
    53  N          0.61461880       0.79693190       0.96785400
    54  N          0.38538120       0.29693190       0.53214600
    55  N          0.38538120       0.20306810       0.03214600
    56  N          0.61461880       0.70306810       0.46785400
    57  C          0.65708860       0.85652000       0.01249600
    58  C          0.34291140       0.35652000       0.48750400
    59  C          0.34291140       0.14348000       0.98750400
    60  C          0.65708860       0.64348000       0.51249600
    61  O          0.74049900       0.91405180       0.02228500
    62  O          0.25950100       0.41405180       0.47771500
    63  O          0.25950100       0.08594820       0.97771500
    64  O          0.74049900       0.58594820       0.52228500
    65  C          0.51583850       0.73272000       0.96749300
    66  C          0.48416150       0.23272000       0.53250700
    67  C          0.48416150       0.26728000       0.03250700
    68  C          0.51583850       0.76728000       0.46749300
    69  O          0.46512900       0.66983190       0.93444500
    70  O          0.53487100       0.16983190       0.56555500
    71  O          0.53487100       0.33016810       0.06555500
    72  O          0.46512900       0.83016810       0.43444500
    73  C          0.49373860       0.76232000       0.01514700
    74  C          0.50626140       0.26232000       0.48485300
    75  C          0.50626140       0.23768000       0.98485300
    76  C          0.49373860       0.73768000       0.51514700
    77  C          0.40731850       0.72742000       0.03343700
    78  C          0.59268150       0.22742000       0.46656300
    79  C          0.59268150       0.27258000       0.96656300
    80  C          0.40731850       0.77258000       0.53343700
    81  C          0.40941840       0.76562000       0.08019700
    82  C          0.59058160       0.26562000       0.41980300
    83  C          0.59058160       0.23438000       0.91980300
    84  C          0.40941840       0.73438000       0.58019700
    85  C          0.49392850       0.83262000       0.10724700
    86  C          0.50607150       0.33262000       0.39275300
    87  C          0.50607150       0.16738000       0.89275300
    88  C          0.49392850       0.66738000       0.60724700
    89  C          0.58005850       0.86863000       0.08847700
    90  C          0.41994150       0.36863000       0.41152300
    91  C          0.41994150       0.13137000       0.91152300
    92  C          0.58005850       0.63137000       0.58847700
    93  C          0.57797860       0.83342000       0.04208700
    94  C          0.42202140       0.33342000       0.45791300
    95  C          0.42202140       0.16658000       0.95791300
    96  C          0.57797860       0.66658000       0.54208700
    97  H          0.12120000       0.88850000       0.99360000
    98  H          0.87880000       0.38850000       0.50640000
    99  H          0.87880000       0.11150000       0.00640000
   100  H          0.12120000       0.61150000       0.49360000
   101  H          0.19140000       0.90240000       0.07240000
   102  H          0.80860000       0.40240000       0.42760000
   103  H          0.80860000       0.09760000       0.92760000
   104  H          0.19140000       0.59760000       0.57240000
   105  H          0.11590000       0.76700000       0.12860000
   106  H          0.88410000       0.26700000       0.37140000
   107  H          0.88410000       0.23300000       0.87140000
   108  H          0.11590000       0.73300000       0.62860000
   109  H          0.96440000       0.61700000       0.10830000
   110  H          0.03560000       0.11700000       0.39170000
   111  H          0.03560000       0.38300000       0.89170000
   112  H          0.96440000       0.88300000       0.60830000
   113  H          0.34970000       0.68000000       0.01510000
   114  H          0.65030000       0.18000000       0.48490000
   115  H          0.65030000       0.32000000       0.98490000
   116  H          0.34970000       0.82000000       0.51510000
   117  H          0.35120000       0.74510000       0.09390000
   118  H          0.64880000       0.24510000       0.40610000
   119  H          0.64880000       0.25490000       0.90610000
   120  H          0.35120000       0.75490000       0.59390000
   121  H          0.49290000       0.85420000       0.13920000
   122  H          0.50710000       0.35420000       0.36080000
   123  H          0.50710000       0.14580000       0.86080000
   124  H          0.49290000       0.64580000       0.63920000
   125  H          0.63790000       0.91550000       0.10680000
   126  H          0.36210000       0.41550000       0.39320000
   127  H          0.36210000       0.08450000       0.89320000
   128  H          0.63790000       0.58450000       0.60680000
   129  S          0.10432400       0.31123700       0.19448819
   130  S          0.89567600       0.81123700       0.30551181
   131  S          0.89567600       0.68876300       0.80551181
   132  S          0.10432400       0.18876300       0.69448819
   133  N          0.10882120       0.43392000       0.24233600
   134  N          0.89117880       0.93392000       0.25766400
   135  N          0.89117880       0.56608000       0.75766400
   136  N          0.10882120       0.06608000       0.74233600
   137  C          0.11793140       0.36942000       0.28861700
   138  C          0.88206860       0.86942000       0.21138300
   139  C          0.88206860       0.63058000       0.71138300
   140  C          0.11793140       0.13058000       0.78861700
   141  O          0.11131120       0.22189170       0.29834600
   142  O          0.88868880       0.72189170       0.20165400
   143  O          0.88868880       0.77810830       0.70165400
   144  O          0.11131120       0.27810830       0.79834600
   145  C          0.12446150       0.61303000       0.24234700
   146  C          0.87553850       0.11303000       0.25765300
   147  C          0.87553850       0.38697000       0.75765300
   148  C          0.12446150       0.88697000       0.74234700
   149  O          0.12819120       0.69731190       0.20820500
   150  O          0.87180880       0.19731190       0.29179500
   151  O          0.87180880       0.30268810       0.79179500
   152  O          0.12819120       0.80268810       0.70820500
   153  C          0.13886140       0.66462000       0.29152700
   154  C          0.86113860       0.16462000       0.20847300
   155  C          0.86113860       0.33538000       0.70847300
   156  C          0.13886140       0.83538000       0.79152700
   157  C          0.15675150       0.82453000       0.31067800
   158  C          0.84324850       0.32453000       0.18932200
   159  C          0.84324850       0.17547000       0.68932200
   160  C          0.15675150       0.67547000       0.81067800
   161  C          0.17462160       0.83543000       0.35848800
   162  C          0.82537840       0.33543000       0.14151200
   163  C          0.82537840       0.16457000       0.64151200
   164  C          0.17462160       0.66457000       0.85848800
   165  C          0.17290170       0.69153000       0.38643800
   166  C          0.82709830       0.19153000       0.11356200
   167  C          0.82709830       0.30847000       0.61356200
   168  C          0.17290170       0.80847000       0.88643800
   169  C          0.15286160       0.53193000       0.36676700
   170  C          0.84713840       0.03193000       0.13323300
   171  C          0.84713840       0.46807000       0.63323300
   172  C          0.15286160       0.96807000       0.86676700
   173  C          0.13674150       0.52082000       0.31913700
   174  C          0.86325850       0.02082000       0.18086300
   175  C          0.86325850       0.47918000       0.68086300
   176  C          0.13674150       0.97918000       0.81913700
   177  S          0.25028400       0.29204600       0.18606417
   178  S          0.74971600       0.79204600       0.31393583
   179  S          0.74971600       0.70795400       0.81393583
   180  S          0.25028400       0.20795400       0.68606417
   181  N          0.29752120       0.12522000       0.21909500
   182  N          0.70247880       0.62522000       0.28090500
   183  N          0.70247880       0.87478000       0.78090500
   184  N          0.29752120       0.37478000       0.71909500
   185  C          0.33845140       0.13702000       0.26688700
   186  C          0.66154860       0.63702000       0.23311300
   187  C          0.66154860       0.86298000       0.73311300
   188  C          0.33845140       0.36298000       0.76688700
   189  O          0.33890110       0.26371180       0.29007500
   190  O          0.66109890       0.76371180       0.20992500
   191  O          0.66109890       0.73628820       0.70992500
   192  O          0.33890110       0.23628820       0.79007500
   193  C          0.31169140       0.96088000       0.20078600
   194  C          0.68830860       0.46088000       0.29921400
   195  C          0.68830860       0.03912000       0.79921400
   196  C          0.31169140       0.53912000       0.70078600
   197  O          0.28951100       0.92040820       0.16090400
   198  O          0.71048900       0.42040820       0.33909600
   199  O          0.71048900       0.07959180       0.83909600
   200  O          0.28951100       0.57959180       0.66090400
   201  C          0.36174140       0.86148000       0.24097700
   202  C          0.63825860       0.36148000       0.25902300
   203  C          0.63825860       0.13852000       0.75902300
   204  C          0.36174140       0.63852000       0.74097700
   205  C          0.38989150       0.69178000       0.24283700
   206  C          0.61010850       0.19178000       0.25716300
   207  C          0.61010850       0.30822000       0.75716300
   208  C          0.38989150       0.80822000       0.74283700
   209  C          0.43508150       0.63017000       0.28582700
   210  C          0.56491850       0.13017000       0.21417300
   211  C          0.56491850       0.36983000       0.71417300
   212  C          0.43508150       0.86983000       0.78582700
   213  C          0.45167160       0.73417000       0.32464700
   214  C          0.54832840       0.23417000       0.17535300
   215  C          0.54832840       0.26583000       0.67535300
   216  C          0.45167160       0.76583000       0.82464700
   217  C          0.42348150       0.90407000       0.32242700
   218  C          0.57651850       0.40407000       0.17757300
   219  C          0.57651850       0.09593000       0.67757300
   220  C          0.42348150       0.59593000       0.82242700
   221  C          0.37841140       0.96498000       0.27983600
   222  C          0.62158860       0.46498000       0.22016400
   223  C          0.62158860       0.03502000       0.72016400
   224  C          0.37841140       0.53502000       0.77983600
   225  H          0.15680000       0.92260000       0.29180000
   226  H          0.84320000       0.42260000       0.20820000
   227  H          0.84320000       0.07740000       0.70820000
   228  H          0.15680000       0.57740000       0.79180000
   229  H          0.18840000       0.94320000       0.37270000
   230  H          0.81160000       0.44320000       0.12730000
   231  H          0.81160000       0.05680000       0.62730000
   232  H          0.18840000       0.55680000       0.87270000
   233  H          0.18560000       0.70290000       0.41920000
   234  H          0.81440000       0.20290000       0.08080000
   235  H          0.81440000       0.29710000       0.58080000
   236  H          0.18560000       0.79710000       0.91920000
   237  H          0.15040000       0.43400000       0.38550000
   238  H          0.84960000       0.93400000       0.11450000
   239  H          0.84960000       0.56600000       0.61450000
   240  H          0.15040000       0.06600000       0.88550000
   241  H          0.37890000       0.62120000       0.21620000
   242  H          0.62110000       0.12120000       0.28380000
   243  H          0.62110000       0.37880000       0.78380000
   244  H          0.37890000       0.87880000       0.71620000
   245  H          0.45500000       0.51450000       0.28860000
   246  H          0.54500000       0.01450000       0.21140000
   247  H          0.54500000       0.48550000       0.71140000
   248  H          0.45500000      -0.01450000       0.78860000
   249  H          0.48300000       0.68830000       0.35330000
   250  H          0.51700000       0.18830000       0.14670000
   251  H          0.51700000       0.31170000       0.64670000
   252  H          0.48300000       0.81170000       0.85330000
   253  H          0.43470000       0.97530000       0.34900000
   254  H          0.56530000       0.47530000       0.15100000
   255  H          0.56530000       0.02470000       0.65100000
   256  H          0.43470000       0.52470000       0.84900000
