data_QOQVOH04
_symmetry_space_group_name_H-M    'P1'
_symmetry_Int_Tables_number       1
loop_
_symmetry_equiv_pos_site_id
_symmetry_equiv_pos_as_xyz
1 x,y,z
_cell_length_a                   7.6042
_cell_length_b                   11.5942
_cell_length_c                   17.2123
_cell_angle_alpha                90.0
_cell_angle_beta                 90.0
_cell_angle_gamma                90.0
loop_
_atom_site_label
_atom_site_type_symbol
_atom_site_fract_x
_atom_site_fract_y
_atom_site_fract_z
     1  S          0.25768500       0.22329300       0.37187918
     2  S          0.24231500       0.77670700       0.87187918
     3  S          0.74231500       0.72329300       0.12812082
     4  S          0.75768500       0.27670700       0.62812082
     5  S          0.74231500       0.77670700       0.62812082
     6  S          0.75768500       0.22329300       0.12812082
     7  S          0.25768500       0.27670700       0.87187918
     8  S          0.24231500       0.72329300       0.37187918
     9  O          0.15435150       0.27355100       0.30761600
    10  O          0.34564850       0.72644900       0.80761600
    11  O          0.84564850       0.77355100       0.19238400
    12  O          0.65435150       0.22644900       0.69238400
    13  O          0.84564850       0.72644900       0.69238400
    14  O          0.65435150       0.27355100       0.19238400
    15  O          0.15435150       0.22644900       0.80761600
    16  O          0.34564850       0.77355100       0.30761600
    17  O          0.17893140       0.24768100       0.44729600
    18  O          0.32106860       0.75231900       0.94729600
    19  O          0.82106860       0.74768100       0.05270400
    20  O          0.67893140       0.25231900       0.55270400
    21  O          0.82106860       0.75231900       0.55270400
    22  O          0.67893140       0.24768100       0.05270400
    23  O          0.17893140       0.25231900       0.94729600
    24  O          0.32106860       0.74768100       0.44729600
    25  O          0.29404170       0.10170100       0.35923600
    26  O          0.20595830       0.89829900       0.85923600
    27  O          0.70595830       0.60170100       0.14076400
    28  O          0.79404170       0.39829900       0.64076400
    29  O          0.70595830       0.89829900       0.64076400
    30  O          0.79404170       0.10170100       0.14076400
    31  O          0.29404170       0.39829900       0.85923600
    32  O          0.20595830       0.60170100       0.35923600
    33  C          0.46102000       0.29594160       0.37070800
    34  C          0.03898000       0.70405840       0.87070800
    35  C          0.53898000       0.79594160       0.12929200
    36  C          0.96102000       0.20405840       0.62929200
    37  C          0.53898000       0.70405840       0.62929200
    38  C          0.96102000       0.29594160       0.12929200
    39  C          0.46102000       0.20405840       0.87070800
    40  C          0.03898000       0.79594160       0.37070800
    41  H          0.53380000       0.26880000       0.41400000
    42  H          0.96620000       0.73120000       0.91400000
    43  H          0.46620000       0.76880000       0.08600000
    44  H          0.03380000       0.23120000       0.58600000
    45  H          0.46620000       0.73120000       0.58600000
    46  H          0.03380000       0.26880000       0.08600000
    47  H          0.53380000       0.23120000       0.91400000
    48  H          0.96620000       0.76880000       0.41400000
    49  H          0.44110000       0.37910000       0.37600000
    50  H          0.05890000       0.62090000       0.87600000
    51  H          0.55890000       0.87910000       0.12400000
    52  H          0.94110000       0.12090000       0.62400000
    53  H          0.55890000       0.62090000       0.62400000
    54  H          0.94110000       0.37910000       0.12400000
    55  H          0.44110000       0.12090000       0.87600000
    56  H          0.05890000       0.87910000       0.37600000
    57  H          0.52140000       0.28040000       0.32150000
    58  H          0.97860000       0.71960000       0.82150000
    59  H          0.47860000       0.78040000       0.17850000
    60  H          0.02140000       0.21960000       0.67850000
    61  H          0.47860000       0.71960000       0.67850000
    62  H          0.02140000       0.28040000       0.17850000
    63  H          0.52140000       0.21960000       0.82150000
    64  H          0.97860000       0.78040000       0.32150000
    65  N          0.90086820       0.42567120       0.35277700
    66  N          0.59913180       0.57432880       0.85277700
    67  N          0.09913180       0.92567120       0.14722300
    68  N          0.40086820       0.07432880       0.64722300
    69  N          0.09913180       0.57432880       0.64722300
    70  N          0.40086820       0.42567120       0.14722300
    71  N          0.90086820       0.07432880       0.85277700
    72  N          0.59913180       0.92567120       0.35277700
    73  H          0.97660000       0.37600000       0.33340000
    74  H          0.52340000       0.62400000       0.83340000
    75  H          0.02340000       0.87600000       0.16660000
    76  H          0.47660000       0.12400000       0.66660000
    77  H          0.02340000       0.62400000       0.66660000
    78  H          0.47660000       0.37600000       0.16660000
    79  H          0.97660000       0.12400000       0.83340000
    80  H          0.52340000       0.87600000       0.33340000
    81  C          0.70108000       0.57772140       0.33327900
    82  C          0.79892000       0.42227860       0.83327900
    83  C          0.29892000       0.07772140       0.16672100
    84  C          0.20108000       0.92227860       0.66672100
    85  C          0.29892000       0.42227860       0.66672100
    86  C          0.20108000       0.57772140       0.16672100
    87  C          0.70108000       0.92227860       0.83327900
    88  C          0.79892000       0.07772140       0.33327900
    89  C          0.66948000       0.58041140       0.41327800
    90  C          0.83052000       0.41958860       0.91327800
    91  C          0.33052000       0.08041140       0.08672200
    92  C          0.16948000       0.91958860       0.58672200
    93  C          0.33052000       0.41958860       0.58672200
    94  C          0.16948000       0.58041140       0.08672200
    95  C          0.66948000       0.91958860       0.91327800
    96  C          0.83052000       0.08041140       0.41327800
    97  H          0.58980000       0.63520000       0.43440000
    98  H          0.91020000       0.36480000       0.93440000
    99  H          0.41020000       0.13520000       0.06560000
   100  H          0.08980000       0.86480000       0.56560000
   101  H          0.41020000       0.36480000       0.56560000
   102  H          0.08980000       0.63520000       0.06560000
   103  H          0.58980000       0.86480000       0.93440000
   104  H          0.91020000       0.13520000       0.43440000
   105  C          0.87118000       0.42539140       0.42957800
   106  C          0.62882000       0.57460860       0.92957800
   107  C          0.12882000       0.92539140       0.07042200
   108  C          0.37118000       0.07460860       0.57042200
   109  C          0.12882000       0.57460860       0.57042200
   110  C          0.37118000       0.42539140       0.07042200
   111  C          0.87118000       0.07460860       0.92957800
   112  C          0.62882000       0.92539140       0.42957800
   113  H          0.93060000       0.37160000       0.46190000
   114  H          0.56940000       0.62840000       0.96190000
   115  H          0.06940000       0.87160000       0.03810000
   116  H          0.43060000       0.12840000       0.53810000
   117  H          0.06940000       0.62840000       0.53810000
   118  H          0.43060000       0.37160000       0.03810000
   119  H          0.93060000       0.12840000       0.96190000
   120  H          0.56940000       0.87160000       0.46190000
   121  C          0.81908000       0.49910140       0.30414800
   122  C          0.68092000       0.50089860       0.80414800
   123  C          0.18092000      -0.00089860       0.19585200
   124  C          0.31908000       0.00089860       0.69585200
   125  C          0.18092000       0.50089860       0.69585200
   126  C          0.31908000       0.49910140       0.19585200
   127  C          0.81908000       0.00089860       0.80414800
   128  C          0.68092000      -0.00089860       0.30414800
   129  H          0.84280000       0.49660000       0.25000000
   130  H          0.65720000       0.50340000       0.75000000
   131  H          0.15720000      -0.00340000       0.25000000
   132  H          0.34280000       0.00340000       0.75000000
   133  H          0.15720000       0.50340000       0.75000000
   134  H          0.34280000       0.49660000       0.25000000
   135  H          0.84280000       0.00340000       0.75000000
   136  H          0.65720000      -0.00340000       0.25000000
   137  C          0.75478000       0.50284150       0.46181800
   138  C          0.74522000       0.49715850       0.96181800
   139  C          0.24522000       0.00284150       0.03818200
   140  C          0.25478000      -0.00284150       0.53818200
   141  C          0.24522000       0.49715850       0.53818200
   142  C          0.25478000       0.50284150       0.03818200
   143  C          0.75478000      -0.00284150       0.96181800
   144  C          0.74522000       0.00284150       0.46181800
   145  H          0.73340000       0.50320000       0.51620000
   146  H          0.76660000       0.49680000       0.01620000
   147  H          0.26660000       0.00320000       0.98380000
   148  H          0.23340000      -0.00320000       0.48380000
   149  H          0.26660000       0.49680000       0.48380000
   150  H          0.23340000       0.50320000       0.98380000
   151  H          0.73340000      -0.00320000       0.01620000
   152  H          0.76660000       0.00320000       0.51620000
   153  H          0.64060000       0.62850000       0.29390000
   154  H          0.85940000       0.37150000       0.79390000
   155  H          0.35940000       0.12850000       0.20610000
   156  H          0.14060000       0.87150000       0.70610000
   157  H          0.35940000       0.37150000       0.70610000
   158  H          0.14060000       0.62850000       0.20610000
   159  H          0.64060000       0.87150000       0.79390000
   160  H          0.85940000       0.12850000       0.29390000
