data_QOQVOH
_symmetry_space_group_name_H-M    'P1'
_symmetry_Int_Tables_number       1
loop_
_symmetry_equiv_pos_site_id
_symmetry_equiv_pos_as_xyz
1 x,y,z
_cell_length_a                   11.08539
_cell_length_b                   8.14257
_cell_length_c                   8.45308
_cell_angle_alpha                90.0
_cell_angle_beta                 90.0
_cell_angle_gamma                90.0
loop_
_atom_site_label
_atom_site_type_symbol
_atom_site_fract_x
_atom_site_fract_y
_atom_site_fract_z
     1  S          0.70804500       0.74081600       0.20959900
     2  S          0.29195500       0.25918400       0.70959900
     3  S          0.20804500       0.75918400       0.20959900
     4  S          0.79195500       0.24081600       0.70959900
     5  C          0.77752000       0.54713000       0.19114000
     6  C          0.22248000       0.45287000       0.69114000
     7  C          0.27752000       0.95287000       0.19114000
     8  C          0.72248000       0.04713000       0.69114000
     9  H          0.74680000       0.49170000       0.09630000
    10  H          0.25320000       0.50830000       0.59630000
    11  H          0.24680000       0.00830000       0.09630000
    12  H          0.75320000      -0.00830000       0.59630000
    13  H          0.75920000       0.48050000       0.28460000
    14  H          0.24080000       0.51950000       0.78460000
    15  H          0.25920000       0.01950000       0.28460000
    16  H          0.74080000       0.98050000       0.78460000
    17  H          0.86500000       0.56130000       0.18200000
    18  H          0.13500000       0.43870000       0.68200000
    19  H          0.36500000       0.93870000       0.18200000
    20  H          0.63500000       0.06130000       0.68200000
    21  O          0.57840160       0.70982000       0.22773000
    22  O          0.42159840       0.29018000       0.72773000
    23  O          0.07840160       0.79018000       0.22773000
    24  O          0.92159840       0.20982000       0.72773000
    25  O          0.73535190       0.83093000       0.06542000
    26  O          0.26464810       0.16907000       0.56542000
    27  O          0.23535190       0.66907000       0.06542000
    28  O          0.76464810       0.33093000       0.56542000
    29  O          0.75862180       0.81413000       0.35163000
    30  O          0.24137820       0.18587000       0.85163000
    31  O          0.25862180       0.68587000       0.35163000
    32  O          0.74137820       0.31413000       0.85163000
    33  N          0.51022000       0.73363000       0.53723000
    34  N          0.48978000       0.26637000       0.03723000
    35  N          0.01022000       0.76637000       0.53723000
    36  N         -0.01022000       0.23363000       0.03723000
    37  H          0.51870000       0.73250000       0.43370000
    38  H          0.48130000       0.26750000       0.93370000
    39  H          0.01870000       0.76750000       0.43370000
    40  H          0.98130000       0.23250000       0.93370000
    41  C          0.57633000       0.63044000       0.62443000
    42  C          0.42367000       0.36956000       0.12443000
    43  C          0.07633000       0.86956000       0.62443000
    44  C          0.92367000       0.13044000       0.12443000
    45  H          0.63070000       0.55650000       0.57470000
    46  H          0.36930000       0.44350000       0.07470000
    47  H          0.13070000       0.94350000       0.57470000
    48  H          0.86930000       0.05650000       0.07470000
    49  C          0.56523000       0.63184000       0.78653000
    50  C          0.43477000       0.36816000       0.28653000
    51  C          0.06523000       0.86816000       0.78653000
    52  C          0.93477000       0.13184000       0.28653000
    53  H          0.61230000       0.55970000       0.84960000
    54  H          0.38770000       0.44030000       0.34960000
    55  H          0.11230000       0.94030000       0.84960000
    56  H          0.88770000       0.05970000       0.34960000
    57  C          0.48523000       0.73893000       0.85643000
    58  C          0.51477000       0.26107000       0.35643000
    59  C          0.98523000       0.76107000       0.85643000
    60  C          0.01477000       0.23893000       0.35643000
    61  H          0.47680000       0.74140000       0.96830000
    62  H          0.52320000       0.25860000       0.46830000
    63  H          0.97680000       0.75860000       0.96830000
    64  H          0.02320000       0.24140000       0.46830000
    65  C          0.41713000       0.84264000       0.76283000
    66  C          0.58287000       0.15736000       0.26283000
    67  C          0.91713000       0.65736000       0.76283000
    68  C          0.08287000       0.34264000       0.26283000
    69  H          0.36080000       0.91600000       0.80940000
    70  H          0.63920000       0.08400000       0.30940000
    71  H          0.86080000       0.58400000       0.80940000
    72  H          0.13920000       0.41600000       0.30940000
    73  C          0.43173000       0.83844000       0.60203000
    74  C          0.56827000       0.16156000       0.10203000
    75  C          0.93173000       0.66156000       0.60203000
    76  C          0.06827000       0.33844000       0.10203000
    77  H          0.38610000       0.91000000       0.53650000
    78  H          0.61390000       0.09000000       0.03650000
    79  H          0.88610000       0.59000000       0.53650000
    80  H          0.11390000       0.41000000       0.03650000
