data_QOQVOH05
_symmetry_space_group_name_H-M    'P1'
_symmetry_Int_Tables_number       1
loop_
_symmetry_equiv_pos_site_id
_symmetry_equiv_pos_as_xyz
1 x,y,z
_cell_length_a                   11.8052
_cell_length_b                   7.6882
_cell_length_c                   8.6922
_cell_angle_alpha                90.0
_cell_angle_beta                 90.0
_cell_angle_gamma                90.0
loop_
_atom_site_label
_atom_site_type_symbol
_atom_site_fract_x
_atom_site_fract_y
_atom_site_fract_z
     1  S          0.21700300       0.74306400       0.79063000
     2  S          0.78299700       0.25693600       0.29063000
     3  S          0.71700300       0.75693600       0.79063000
     4  S          0.28299700       0.24306400       0.29063000
     5  O          0.24854000       0.83565000       0.65144000
     6  O          0.75146000       0.16435000       0.15144000
     7  O          0.74854000       0.66435000       0.65144000
     8  O          0.25146000       0.33565000       0.15144000
     9  O          0.24794000       0.83636000       0.92804000
    10  O          0.75206000       0.16364000       0.42804000
    11  O          0.74794000       0.66364000       0.92804000
    12  O          0.25206000       0.33636000       0.42804000
    13  O          0.09970110       0.68961190       0.78808000
    14  O          0.90029890       0.31038810       0.28808000
    15  O          0.59970110       0.81038810       0.78808000
    16  O          0.40029890       0.18961190       0.28808000
    17  C          0.29794170       0.55102000       0.78741100
    18  C          0.70205830       0.44898000       0.28741100
    19  C          0.79794170       0.94898000       0.78741100
    20  C          0.20205830       0.05102000       0.28741100
    21  H          0.37700000       0.57990000       0.78900000
    22  H          0.62300000       0.42010000       0.28900000
    23  H          0.87700000       0.92010000       0.78900000
    24  H          0.12300000       0.07990000       0.28900000
    25  H          0.28110000       0.48660000       0.69560000
    26  H          0.71890000       0.51340000       0.19560000
    27  H          0.78110000       0.01340000       0.69560000
    28  H          0.21890000      -0.01340000       0.19560000
    29  H          0.27990000       0.48160000       0.87590000
    30  H          0.72010000       0.51840000       0.37590000
    31  H          0.77990000       0.01840000       0.87590000
    32  H          0.22010000       0.98160000       0.37590000
    33  C          0.49228000       0.21598000       0.94158000
    34  C          0.50772000       0.78402000       0.44158000
    35  C         -0.00772000       0.28402000       0.94158000
    36  C          0.00772000       0.71598000       0.44158000
    37  H          0.48950000       0.21150000       0.04840000
    38  H          0.51050000       0.78850000       0.54840000
    39  H         -0.01050000       0.28850000       0.04840000
    40  H          0.01050000       0.71150000       0.54840000
    41  C          0.41946000       0.12947000       0.70438000
    42  C          0.58054000       0.87053000       0.20438000
    43  C          0.91946000       0.37053000       0.70438000
    44  C          0.08054000       0.62947000       0.20438000
    45  H          0.36750000       0.06510000       0.64730000
    46  H          0.63250000       0.93490000       0.14730000
    47  H          0.86750000       0.43490000       0.64730000
    48  H          0.13250000       0.56510000       0.14730000
    49  C          0.56585000       0.31058000       0.87196000
    50  C          0.43415000       0.68942000       0.37196000
    51  C          0.06585000       0.18942000       0.87196000
    52  C          0.93415000       0.81058000       0.37196000
    53  H          0.61670000       0.37540000       0.93000000
    54  H          0.38330000       0.62460000       0.43000000
    55  H          0.11670000       0.12460000       0.93000000
    56  H          0.88330000       0.87540000       0.43000000
    57  C          0.57155000       0.31857000       0.71606000
    58  C          0.42845000       0.68143000       0.21606000
    59  C          0.07155000       0.18143000       0.71606000
    60  C          0.92845000       0.81857000       0.21606000
    61  H          0.62700000       0.38450000       0.66750000
    62  H          0.37300000       0.61550000       0.16750000
    63  H          0.12700000       0.11550000       0.66750000
    64  H          0.87300000       0.88450000       0.16750000
    65  N          0.41653000       0.12026000       0.85268000
    66  N          0.58347000       0.87974000       0.35268000
    67  N          0.91653000       0.37974000       0.85268000
    68  N          0.08347000       0.62026000       0.35268000
    69  H          0.36740000       0.05440000       0.89680000
    70  H          0.63260000       0.94560000       0.39680000
    71  H          0.86740000       0.44560000       0.89680000
    72  H          0.13260000       0.55440000       0.39680000
    73  C          0.49327000       0.22678000       0.63157000
    74  C          0.50673000       0.77322000       0.13157000
    75  C         -0.00673000       0.27322000       0.63157000
    76  C          0.00673000       0.72678000       0.13157000
    77  H          0.49270000       0.23350000       0.52460000
    78  H          0.50730000       0.76650000       0.02460000
    79  H         -0.00730000       0.26650000       0.52460000
    80  H          0.00730000       0.73350000       0.02460000
