data_QOWVEH
_symmetry_space_group_name_H-M    'P1'
_symmetry_Int_Tables_number       1
loop_
_symmetry_equiv_pos_site_id
_symmetry_equiv_pos_as_xyz
1 x,y,z
_cell_length_a                   33.84554
_cell_length_b                   4.70711
_cell_length_c                   8.62611
_cell_angle_alpha                90.0
_cell_angle_beta                 90.0
_cell_angle_gamma                90.0
loop_
_atom_site_label
_atom_site_type_symbol
_atom_site_fract_x
_atom_site_fract_y
_atom_site_fract_z
     1  C          0.14699160       0.02341000       0.55937000
     2  C          0.85300840      -0.02341000       0.05937000
     3  C          0.64699160      -0.02341000       0.55937000
     4  C          0.35300840       0.02341000       0.05937000
     5  C          0.24095140       0.28771000       0.48656000
     6  C          0.75904860       0.71229000      -0.01344000
     7  C          0.74095140       0.71229000       0.48656000
     8  C          0.25904860       0.28771000      -0.01344000
     9  H          0.23340100       0.44248800       0.42646900
    10  H          0.76659900       0.55751200       0.92646900
    11  H          0.73340100       0.55751200       0.42646900
    12  H          0.26659900       0.44248800       0.92646900
    13  C          0.28254140       0.22271000       0.50726000
    14  C          0.71745860       0.77729000       0.00726000
    15  C          0.78254140       0.77729000       0.50726000
    16  C          0.21745860       0.22271000       0.00726000
    17  C          0.29554170       0.01101200       0.61117000
    18  C          0.70445830      -0.01101200       0.11117000
    19  C          0.79554170      -0.01101200       0.61117000
    20  C          0.20445830       0.01101200       0.11117000
    21  C          0.33558190       0.96188800       0.62698000
    22  C          0.66441810       0.03811200       0.12698000
    23  C          0.83558190       0.03811200       0.62698000
    24  C          0.16441810       0.96188800       0.12698000
    25  H          0.34440000       0.82453900       0.69626000
    26  H          0.65560000       0.17546100       0.19626000
    27  H          0.84440000       0.17546100       0.69626000
    28  H          0.15560000       0.82453900       0.19626000
    29  C          0.36291180       0.11631200       0.54008000
    30  C          0.63708820       0.88368800       0.04008000
    31  C          0.86291180       0.88368800       0.54008000
    32  C          0.13708820       0.11631200       0.04008000
    33  H          0.38979800       0.08060400       0.55091300
    34  H          0.61020200       0.91939600       0.05091300
    35  H          0.88979800       0.91939600       0.55091300
    36  H          0.11020200       0.08060400       0.05091300
    37  C          0.35015130       0.32011000       0.43879000
    38  C          0.64984870       0.67989000       0.93879000
    39  C          0.85015130       0.67989000       0.43879000
    40  C          0.14984870       0.32011000       0.93879000
    41  C          0.31033150       0.37701000       0.42277000
    42  C          0.68966850       0.62299000       0.92277000
    43  C          0.81033150       0.62299000       0.42277000
    44  C          0.18966850       0.37701000       0.92277000
    45  H          0.30200500       0.51889500       0.35517400
    46  H          0.69799500       0.48110500       0.85517400
    47  H          0.80200500       0.48110500       0.35517400
    48  H          0.19799500       0.51889500       0.85517400
    49  C          0.10575150       0.12151000       0.53017000
    50  C          0.89424850       0.87849000       0.03017000
    51  C          0.60575150       0.87849000       0.53017000
    52  C          0.39424850       0.12151000       0.03017000
    53  C          0.07547170       0.00351300       0.61478000
    54  C          0.92452830      -0.00351300       0.11478000
    55  C          0.57547170      -0.00351300       0.61478000
    56  C          0.42452830       0.00351300       0.11478000
    57  H          0.08121700       0.86361100       0.68740200
    58  H          0.91878300       0.13638900       0.18740200
    59  H          0.58121700       0.13638900       0.68740200
    60  H          0.41878300       0.86361100       0.18740200
    61  C          0.03693180       0.08711200       0.59431000
    62  C          0.96306820       0.91288800       0.09431000
    63  C          0.53693180       0.91288800       0.59431000
    64  C          0.46306820       0.08711200       0.09431000
    65  H          0.01682900       0.00747800       0.65358400
    66  H          0.98317100      -0.00747800       0.15358400
    67  H          0.51682900      -0.00747800       0.65358400
    68  H          0.48317100       0.00747800       0.15358400
    69  C          0.02858120       0.29101200       0.48456000
    70  C          0.97141880       0.70898800      -0.01544000
    71  C          0.52858120       0.70898800       0.48456000
    72  C          0.47141880       0.29101200      -0.01544000
    73  C          0.05772000       0.40891300       0.39668000
    74  C          0.94228000       0.59108700       0.89668000
    75  C          0.55772000       0.59108700       0.39668000
    76  C          0.44228000       0.40891300       0.89668000
    77  H          0.05143200       0.54440100       0.32208400
    78  H          0.94856800       0.45559900       0.82208400
    79  H          0.55143200       0.45559900       0.32208400
    80  H          0.44856800       0.54440100       0.82208400
    81  C          0.09696160       0.32621300       0.41846000
    82  C          0.90303840       0.67378700       0.91846000
    83  C          0.59696160       0.67378700       0.41846000
    84  C          0.40303840       0.32621300       0.91846000
    85  H          0.11698900       0.40670300       0.35910800
    86  H          0.88301100       0.59329700       0.85910800
    87  H          0.61698900       0.59329700       0.35910800
    88  H          0.38301100       0.40670300       0.85910800
    89  N          0.17551120       0.20731000       0.52486000
    90  N          0.82448880       0.79269000       0.02486000
    91  N          0.67551120       0.79269000       0.52486000
    92  N          0.32448880       0.20731000       0.02486000
    93  N          0.21473130       0.13259000       0.55086000
    94  N          0.78526870       0.86741000       0.05086000
    95  N          0.71473130       0.86741000       0.55086000
    96  N          0.28526870       0.13259000       0.05086000
    97  O          0.15459110       0.78352000       0.61226000
    98  O          0.84540890       0.21648000       0.11226000
    99  O          0.65459110       0.21648000       0.61226000
   100  O          0.34540890       0.78352000       0.11226000
   101  O          0.27008150       0.84691000       0.69526000
   102  O          0.72991850       0.15309000       0.19526000
   103  O          0.77008150       0.15309000       0.69526000
   104  O          0.22991850       0.84691000       0.19526000
   105  O          0.37863140       0.46681200       0.35717000
   106  O          0.62136860       0.53318800       0.85717000
   107  O          0.87863140       0.53318800       0.35717000
   108  O          0.12136860       0.46681200       0.85717000
   109  I          0.96994800       0.42596800       0.45259800
   110  I          0.03005200       0.57403200       0.95259800
   111  I          0.46994800       0.57403200       0.45259800
   112  I          0.53005200       0.42596800       0.95259800
   113  H          0.36830000       0.56115000       0.30410000
   114  H          0.63170000       0.43885000       0.80410000
   115  H          0.86830000       0.43885000       0.30410000
   116  H          0.13170000       0.56115000       0.80410000
   117  H          0.24630000       0.89988000       0.66990000
   118  H          0.75370000       0.10012000       0.16990000
   119  H          0.74630000       0.10012000       0.66990000
   120  H          0.25370000       0.89988000       0.16990000
   121  H          0.17020000       0.36218000       0.51210000
   122  H          0.82980000       0.63782000       0.01210000
   123  H          0.67020000       0.63782000       0.51210000
   124  H          0.32980000       0.36218000       0.01210000
