data_QOWVEH01
_symmetry_space_group_name_H-M    'P1'
_symmetry_Int_Tables_number       1
loop_
_symmetry_equiv_pos_site_id
_symmetry_equiv_pos_as_xyz
1 x,y,z
_cell_length_a                   4.53031
_cell_length_b                   10.53682
_cell_length_c                   14.36913
_cell_angle_alpha                90.0
_cell_angle_beta                 90.7372
_cell_angle_gamma                90.0
loop_
_atom_site_label
_atom_site_type_symbol
_atom_site_fract_x
_atom_site_fract_y
_atom_site_fract_z
     1  I          0.24419800       0.37966700       0.95196800
     2  I          0.75580200       0.87966700       0.04803200
     3  C          0.06261400       0.41986000       0.08114000
     4  C          0.93738600       0.91986000       0.91886000
     5  O          0.61971100       0.63914000       0.35213000
     6  O          0.38028900       0.13914000       0.64787000
     7  O          0.19851100       0.67234000       0.56494000
     8  O          0.80148900       0.17234000       0.43506000
     9  C          0.04851200       0.45305000       0.59024000
    10  C          0.95148800       0.95305000       0.40976000
    11  C          0.69878800       0.41175000       0.71284000
    12  C          0.30121200       0.91175000       0.28716000
    13  C          0.87558900       0.36906000       0.64144000
    14  C          0.12441100       0.86906000       0.35856000
    15  H          0.87919800       0.28291500       0.62719100
    16  H          0.12080200       0.78291500       0.37280900
    17  C          0.65111200       0.52555000       0.33534000
    18  C          0.34888800       0.02555000       0.66466000
    19  C          0.75671300       0.36186000       0.21024000
    20  C          0.24328700       0.86186000       0.78976000
    21  H          0.64105700       0.30210900       0.24045200
    22  H          0.35894300       0.80210900       0.75954800
    23  C          0.69548600       0.53926000       0.73444000
    24  C          0.30451400       0.03926000       0.26556000
    25  H          0.58159600       0.56837800       0.78339100
    26  H          0.41840400       0.06837800       0.21660900
    27  C          0.88271800       0.33277000       0.12535000
    28  C          0.11728200       0.83277000       0.87465000
    29  H          0.84620800       0.25423100       0.09783500
    30  H          0.15379200       0.75423100       0.90216500
    31  C          0.23191100       0.40385000       0.51684000
    32  C          0.76808900       0.90385000       0.48316000
    33  H          0.24969500       0.31676000       0.50789800
    34  H          0.75030500       0.81676000       0.49210200
    35  N          0.36991100       0.48184000       0.46413000
    36  N          0.63008900       0.98184000       0.53587000
    37  C          0.80411200       0.48155000       0.25034000
    38  C          0.19588800       0.98155000       0.74966000
    39  C          0.11381600       0.53756000       0.12215000
    40  C          0.88618400       0.03756000       0.87785000
    41  H          0.23538400       0.59611600       0.09302000
    42  H          0.76461600       0.09611600       0.90698000
    43  O          0.52808900       0.33114000       0.76443000
    44  O          0.47191100       0.83114000       0.23557000
    45  C          0.03751200       0.58345000       0.61174000
    46  C          0.96248800       0.08345000       0.38826000
    47  C         -0.01488600       0.56786000       0.20585000
    48  C          0.01488600       0.06786000       0.79415000
    49  H          0.02014700       0.64679600       0.23253000
    50  H         -0.02014700       0.14679600       0.76747000
    51  N          0.53741200       0.43645000       0.39344000
    52  N          0.46258800       0.93645000       0.60656000
    53  C          0.86198600       0.62395000       0.68335000
    54  C          0.13801400       0.12395000       0.31665000
    55  H          0.85487900       0.70989300       0.69760600
    56  H          0.14512100       0.20989300       0.30239400
    57  H          0.47327800       0.26902100       0.73612500
    58  H          0.52672200       0.76902100       0.26387500
    59  H          0.59815000       0.34560000       0.39350000
    60  H          0.40185000       0.84560000       0.60650000
    61  H          0.29200000       0.62712000       0.53180000
    62  H          0.70800000       0.12712000       0.46820000
