data_QOWVEH02
_symmetry_space_group_name_H-M    'P1'
_symmetry_Int_Tables_number       1
loop_
_symmetry_equiv_pos_site_id
_symmetry_equiv_pos_as_xyz
1 x,y,z
_cell_length_a                   4.88261
_cell_length_b                   5.06741
_cell_length_c                   27.27104
_cell_angle_alpha                90.0
_cell_angle_beta                 90.0471
_cell_angle_gamma                90.0
loop_
_atom_site_label
_atom_site_type_symbol
_atom_site_fract_x
_atom_site_fract_y
_atom_site_fract_z
     1  C          0.55471100       0.56431400       0.22282000
     2  C          0.44528900       0.06431400       0.77718000
     3  C          0.27421000       0.29520000       0.32822000
     4  C          0.72579000       0.79520000       0.67178000
     5  H          0.11844000       0.39905000       0.33115800
     6  H          0.88156000       0.89905000       0.66884200
     7  C          0.34351100       0.09381300       0.36592000
     8  C          0.65648900       0.59381300       0.63408000
     9  C          0.56311100       0.91648500       0.36012000
    10  C          0.43688900       0.41648500       0.63988000
    11  C          0.60831400       0.72878700       0.39643000
    12  C          0.39168600       0.22878700       0.60357000
    13  H          0.74693900       0.60515300       0.39202200
    14  H          0.25306100       0.10515300       0.60797800
    15  C          0.45461400       0.72078600       0.43843000
    16  C          0.54538600       0.22078600       0.56157000
    17  H          0.49028500       0.59382300       0.46217000
    18  H          0.50971500       0.09382300       0.53783000
    19  C          0.24631300       0.90208700       0.44532000
    20  C          0.75368700       0.40208700       0.55468000
    21  C          0.18711300       0.08291400       0.40872000
    22  C          0.81288700       0.58291400       0.59128000
    23  H          0.04100200       0.19867600       0.41271800
    24  H          0.95899800       0.69867600       0.58728200
    25  C          0.46171100       0.74451200       0.18392000
    26  C          0.53828900       0.24451200       0.81608000
    27  C          0.58741200       0.72871400       0.13783000
    28  C          0.41258800       0.22871400       0.86217000
    29  H          0.72962800       0.60948700       0.13292500
    30  H          0.27037200       0.10948700       0.86707500
    31  C          0.50291300       0.88791600       0.09962000
    32  C          0.49708700       0.38791600       0.90038000
    33  H          0.58843100       0.87686600       0.06922800
    34  H          0.41156900       0.37686600       0.93077200
    35  C          0.28901400       0.06501600       0.10692000
    36  C          0.71098600       0.56501600       0.89308000
    37  C          0.16801500       0.09081500       0.15213000
    38  C          0.83198500       0.59081500       0.84787000
    39  H          0.03155900       0.21593800       0.15709100
    40  H          0.96844100       0.71593800       0.84290900
    41  C          0.25101300       0.92901400       0.19012000
    42  C          0.74898700       0.42901400       0.80988000
    43  H          0.16509400       0.94293000       0.22039900
    44  H          0.83490600       0.44293000       0.77960100
    45  N          0.36131000       0.49851200       0.25619190
    46  N          0.63869000      -0.00148800       0.74380810
    47  N          0.43569000       0.31931600       0.29172170
    48  N          0.56431000       0.81931600       0.70827830
    49  O          0.78908000       0.47711100       0.22452170
    50  O          0.21092000      -0.02288900       0.77547830
    51  O          0.72941000       0.91648700       0.32002000
    52  O          0.27059000       0.41648700       0.67998000
    53  O          0.09481000       0.88628900       0.48811170
    54  O          0.90519000       0.38628900       0.51188830
    55  I          0.14572800       0.29323160       0.04779200
    56  I          0.85427200       0.79323160       0.95220800
    57  H          0.20616000       0.54115000       0.25230000
    58  H          0.79384000       0.04115000       0.74770000
    59  H          0.70200000       0.01300000       0.29450000
    60  H          0.29800000       0.51300000       0.70550000
    61  H          0.96940000       0.04630000       0.49420000
    62  H          0.03060000       0.54630000       0.50580000
