data_QQQAXG03
_symmetry_space_group_name_H-M    'P1'
_symmetry_Int_Tables_number       1
loop_
_symmetry_equiv_pos_site_id
_symmetry_equiv_pos_as_xyz
1 x,y,z
_cell_length_a                   8.18834
_cell_length_b                   10.63945
_cell_length_c                   20.47611
_cell_angle_alpha                90.0
_cell_angle_beta                 90.0
_cell_angle_gamma                99.3702
loop_
_atom_site_label
_atom_site_type_symbol
_atom_site_fract_x
_atom_site_fract_y
_atom_site_fract_z
     1  C          0.55662000       0.32209150       0.36344600
     2  C          0.44338000       0.67790850       0.86344600
     3  C          0.52772000       0.21927190       0.32048900
     4  C          0.47228000       0.78072810       0.82048900
     5  C          0.36932000       0.17263170       0.29933900
     6  C          0.63068000       0.82736830       0.79933900
     7  C          0.23462000       0.22807150       0.32077800
     8  C          0.76538000       0.77192850       0.82077800
     9  C          0.26452000       0.33153180       0.36400100
    10  C          0.73548000       0.66846820       0.86400100
    11  C          0.42332000       0.37753170       0.38490900
    12  C          0.57668000       0.62246830       0.88490900
    13  C          0.72763000       0.36892000       0.38480100
    14  C          0.27237000       0.63108000       0.88480100
    15  O          0.84873000       0.32393000       0.36865130
    16  O          0.15127000       0.67607000       0.86865130
    17  O          0.73743000       0.46512000       0.42774120
    18  O          0.26257000       0.53488000       0.92774120
    19  C          0.90294000       0.51634000       0.45196190
    20  C          0.09706000       0.48366000       0.95196190
    21  C          0.88105000       0.61314000       0.50282000
    22  C          0.11895000       0.38686000       0.00282000
    23  N          0.07672000       0.18222000       0.29996110
    24  N          0.92328000       0.81778000       0.79996110
    25  H          0.62256000       0.17886000       0.30482000
    26  H          0.37744000       0.82114000       0.80482000
    27  H          0.35037000       0.09879000       0.26850000
    28  H          0.64963000       0.90121000       0.76850000
    29  H          0.17003000       0.37228000       0.37982000
    30  H          0.82997000       0.62772000       0.87982000
    31  H          0.44288000       0.45135000       0.41572000
    32  H          0.55712000       0.54865000       0.91572000
    33  H          0.97365000       0.55727000       0.41552000
    34  H          0.02635000       0.44273000       0.91552000
    35  H          0.95558000       0.44670000       0.47158000
    36  H          0.04442000       0.55330000       0.97158000
    37  H         -0.00848000       0.65103000       0.52088000
    38  H          0.00848000       0.34897000       0.02088000
    39  H          0.82744000       0.68183000       0.48271000
    40  H          0.17256000       0.31817000       0.98271000
    41  H          0.80937000       0.57126000       0.53877000
    42  H          0.19063000       0.42874000       0.03877000
    43  H          0.05655000       0.10843000       0.26913000
    44  H          0.94345000       0.89157000       0.76913000
    45  H         -0.01816000       0.22267000       0.31563000
    46  H          0.01816000       0.77733000       0.81563000
    47  C          0.70472000       0.56163150       0.13936700
    48  C          0.29528000       0.43836850       0.63936700
    49  C          0.69062000       0.45818190       0.18190900
    50  C          0.30938000       0.54181810       0.68190900
    51  C          0.82982000       0.41356170       0.20404900
    52  C          0.17018000       0.58643830       0.70404900
    53  C         -0.01198000       0.47171150       0.18405800
    54  C          0.01198000       0.52828850       0.68405800
    55  C          0.00152000       0.57579180       0.14123100
    56  C         -0.00152000       0.42420820       0.64123100
    57  C          0.86162000       0.61977170       0.11934900
    58  C          0.13838000       0.38022830       0.61934900
    59  C          0.55303000       0.60622000       0.11691100
    60  C          0.44697000       0.39378000       0.61691100
    61  O          0.41313000       0.55382000       0.13033140
    62  O          0.58687000       0.44618000       0.63033140
    63  O          0.58133000       0.70592000       0.07689120
    64  O          0.41867000       0.29408000       0.57689120
    65  C          0.43574000       0.75324000       0.05252000
    66  C          0.56426000       0.24676000       0.55252000
    67  C          0.49385000       0.86554000       0.00932000
    68  C          0.50615000       0.13446000       0.50932000
    69  N          0.12712000       0.42792000       0.20586110
    70  N          0.87288000       0.57208000       0.70586110
    71  H          0.57853000       0.41585000       0.19654000
    72  H          0.42147000       0.58415000       0.69654000
    73  H          0.81776000       0.33923000       0.23456000
    74  H          0.18224000       0.66077000       0.73456000
    75  H          0.11328000       0.61846000       0.12644000
    76  H          0.88672000       0.38154000       0.62644000
    77  H          0.87297000       0.69406000       0.08882000
    78  H          0.12703000       0.30594000       0.58882000
    79  H          0.37064000       0.77985000       0.08991000
    80  H          0.62936000       0.22015000       0.58991000
    81  H          0.36486000       0.68499000       0.02696000
    82  H          0.63514000       0.31501000       0.52696000
    83  H          0.39592000       0.89992000       0.99184000
    84  H          0.60408000       0.10008000       0.49184000
    85  H          0.56501000       0.93313000       0.03509000
    86  H          0.43499000       0.06687000       0.53509000
    87  H          0.55924000       0.83828000       0.97213000
    88  H          0.44076000       0.16172000       0.47213000
    89  H          0.11632000       0.35362000       0.23638000
    90  H          0.88368000       0.64638000       0.73638000
    91  H          0.23914000       0.47024000       0.19121000
    92  H          0.76086000       0.52976000       0.69121000
    93  C          0.70332000       0.81687160       0.35695600
    94  C          0.29668000       0.18312840       0.85695600
    95  C          0.67122000       0.70534190       0.32019900
    96  C          0.32878000       0.29465810       0.82019900
    97  C          0.51302000       0.65943170       0.29862900
    98  C          0.48698000       0.34056830       0.79862900
    99  C          0.38172000       0.72441150       0.31339800
   100  C          0.61828000       0.27558850       0.81339800
   101  C          0.41462000       0.83662180       0.35040100
   102  C          0.58538000       0.16337820       0.85040100
   103  C          0.57332000       0.88181170       0.37176900
   104  C          0.42668000       0.11818830       0.87176900
   105  C          0.87403000       0.86252000       0.37898100
   106  C          0.12597000       0.13748000       0.87898100
   107  O         -0.00647000       0.81362000       0.36615130
   108  O          0.00647000       0.18638000       0.86615130
   109  O          0.88323000       0.95912000       0.42229120
   110  O          0.11677000       0.04088000       0.92229120
   111  C          0.04434000       0.00663000       0.44995180
   112  C          0.95566000      -0.00663000       0.94995180
   113  C          0.02745000       0.12214000       0.49002000
   114  C          0.97255000       0.87786000       0.99002000
   115  N          0.22392000       0.67942000       0.29212110
   116  N          0.77608000       0.32058000       0.79212110
   117  H          0.76374000       0.65808000       0.30932000
   118  H          0.23626000       0.34192000       0.80932000
   119  H          0.49181000       0.57927000       0.27229000
   120  H          0.50819000       0.42073000       0.77229000
   121  H          0.32258000       0.88423000       0.36140000
   122  H          0.67742000       0.11577000       0.86140000
   123  H          0.59513000       0.96193000       0.39811000
   124  H          0.40487000       0.03807000       0.89811000
   125  H          0.12686000       0.03034000       0.41423000
   126  H          0.87314000       0.96966000       0.91423000
   127  H          0.08117000       0.93998000       0.47827000
   128  H          0.91883000       0.06002000       0.97827000
   129  H          0.13687000       0.15742000       0.50989000
   130  H          0.86313000       0.84258000       0.00989000
   131  H         -0.01006000       0.18805000       0.46140000
   132  H          0.01006000       0.81195000       0.96140000
   133  H          0.94424000       0.09769000       0.52545000
   134  H          0.05576000       0.90231000       0.02545000
   135  H          0.20149000       0.59929000       0.26576000
   136  H          0.79851000       0.40071000       0.76576000
   137  H          0.13141000       0.72665000       0.30300000
   138  H          0.86859000       0.27335000       0.80300000
   139  C          0.82342000       0.06483160       0.14551600
   140  C          0.17658000       0.93516840       0.64551600
   141  C          0.80842000       0.95565810       0.18410900
   142  C          0.19158000       0.04434190       0.68410900
   143  C          0.94582000       0.90182830       0.19974900
   144  C          0.05418000       0.09817170       0.69974900
   145  C          0.10312000       0.95620840       0.17699800
   146  C          0.89688000       0.04379160       0.67699800
   147  C          0.11752000       0.06608190       0.13816100
   148  C          0.88248000       0.93391810       0.63816100
   149  C          0.97942000       0.11926180       0.12278900
   150  C          0.02058000       0.88073820       0.62278900
   151  C          0.67363000       0.11922000       0.12998110
   152  C          0.32637000       0.88078000       0.62998110
   153  O          0.53593000       0.08093000       0.15084140
   154  O          0.46407000       0.91907000       0.65084140
   155  O          0.69843000       0.19952000       0.07735120
   156  O          0.30157000       0.80048000       0.57735120
   157  C          0.55525000       0.24924000       0.05352000
   158  C          0.44475000       0.75076000       0.55352000
   159  C          0.61315000       0.34574000       0.00192000
   160  C          0.38685000       0.65426000       0.50192000
   161  N          0.24042000       0.90318000       0.19233120
   162  N          0.75958000       0.09682000       0.69233120
   163  H          0.69697000       0.91593000       0.20064000
   164  H          0.30303000       0.08407000       0.70064000
   165  H          0.93313000       0.82348000       0.22748000
   166  H          0.06687000       0.17652000       0.72748000
   167  H          0.22863000       0.10619000       0.12150000
   168  H          0.77137000       0.89381000       0.62150000
   169  H         -0.00861000       0.19760000       0.09505000
   170  H          0.00861000       0.80240000       0.59505000
   171  H          0.50238000       0.29026000       0.09009000
   172  H          0.49762000       0.70974000       0.59009000
   173  H          0.47321000       0.17861000       0.03461000
   174  H          0.52679000       0.82139000       0.53461000
   175  H          0.51652000       0.38178000       0.98447000
   176  H          0.48348000       0.61822000       0.48447000
   177  H          0.69542000       0.41568000       0.02110000
   178  H          0.30458000       0.58432000       0.52110000
   179  H          0.66625000       0.30402000       0.96561000
   180  H          0.33375000       0.69598000       0.46561000
   181  H          0.22896000       0.82490000       0.22004000
   182  H          0.77104000       0.17510000       0.72004000
   183  H          0.35177000       0.94300000       0.17578000
   184  H          0.64823000       0.05700000       0.67578000
