data_QQQAUG03
_symmetry_space_group_name_H-M    'P1'
_symmetry_Int_Tables_number       1
loop_
_symmetry_equiv_pos_site_id
_symmetry_equiv_pos_as_xyz
1 x,y,z
_cell_length_a                   4.86142
_cell_length_b                   6.38023
_cell_length_c                   8.92514
_cell_angle_alpha                74.4223
_cell_angle_beta                 83.8853
_cell_angle_gamma                80.5543
loop_
_atom_site_label
_atom_site_type_symbol
_atom_site_fract_x
_atom_site_fract_y
_atom_site_fract_z
     1  Cl         0.64604850       0.36206110       0.03949900
     2  S          0.59407120       0.02200100       0.59827800
     3  S         -0.01962140       0.85766890       0.14920900
     4  O          0.84324000       0.92067000       0.67572000
     5  O          0.47085000       0.88846000       0.52553000
     6  O          0.15134000       0.65277000       0.14782000
     7  O          0.68286000       0.86367000       0.17172000
     8  N          0.66216000       0.23924000       0.46533000
     9  N          0.27946000       0.47464000       0.54453000
    10  N          0.07746000       0.94325000       0.28623000
    11  C          0.50126000       0.42655000       0.45054000
    12  C          0.20407000       0.33085000       0.68504000
    13  C          0.34636000       0.11725000       0.72953000
    14  C          0.27557000       0.97665000       0.87234000
    15  C          0.05967000       0.04575000       0.96984000
    16  C          0.91713000       0.26115000       0.92294000
    17  C         -0.01267000       0.40215000       0.78414000
    18  H          0.54560000       0.54210000       0.36350000
    19  H          0.20770000       0.61060000       0.53240000
    20  H          0.97430000       0.05060000       0.30340000
    21  H          0.24080000       0.95840000       0.27640000
    22  H          0.37610000       0.83290000       0.90280000
    23  H          0.89000000       0.54730000       0.75530000
