data_QQQAXG01
_symmetry_space_group_name_H-M    'P1'
_symmetry_Int_Tables_number       1
loop_
_symmetry_equiv_pos_site_id
_symmetry_equiv_pos_as_xyz
1 x,y,z
_cell_length_a                   5.3022
_cell_length_b                   8.2171
_cell_length_c                   20.872
_cell_angle_alpha                90.0
_cell_angle_beta                 90.0
_cell_angle_gamma                90.0
loop_
_atom_site_label
_atom_site_type_symbol
_atom_site_fract_x
_atom_site_fract_y
_atom_site_fract_z
     1  C          0.21313000       0.08482100       0.06696000
     2  C          0.71313000       0.41517900       0.93304000
     3  C          0.78687000       0.58482100       0.43304000
     4  C          0.28687000       0.91517900       0.56696000
     5  C          0.12292500       0.93517900       0.04885000
     6  C          0.62292500       0.56482100       0.95115000
     7  C          0.87707500       0.43517900       0.45115000
     8  C          0.37707500       0.06482100       0.54885000
     9  C          0.19343000       0.78698200       0.07006000
    10  C          0.69343000       0.71301800       0.92994000
    11  C          0.80657000       0.28698200       0.42994000
    12  C          0.30657000       0.21301800       0.57006000
    13  C          0.39853300       0.77508400       0.10926000
    14  C          0.89853300       0.72491600       0.89074000
    15  C          0.60146700       0.27508400       0.39074000
    16  C          0.10146700       0.22491600       0.60926000
    17  C          0.51193000       0.92008100       0.12677000
    18  C          0.01193000       0.57991900       0.87323000
    19  C          0.48807000       0.42008100       0.37323000
    20  C         -0.01193000       0.07991900       0.62677000
    21  C          0.43813300       0.06362000       0.10577000
    22  C          0.93813300       0.43638000       0.89423000
    23  C          0.56186700       0.56362000       0.39423000
    24  C          0.06186700       0.93638000       0.60577000
    25  C          0.48742000       0.62118400       0.12925000
    26  C         -0.01258000       0.87881600       0.87075000
    27  C          0.51258000       0.12118400       0.37075000
    28  C          0.01258000       0.37881600       0.62925000
    29  C          0.78824300       0.48127600       0.19718000
    30  C          0.28824300       0.01872400       0.80282000
    31  C          0.21175700       0.98127600       0.30282000
    32  C          0.71175700       0.51872400       0.69718000
    33  C         -0.01686500       0.51617900       0.24558000
    34  C          0.48313500      -0.01617900       0.75442000
    35  C          0.01686500       0.01617900       0.25442000
    36  C          0.51686500       0.48382100       0.74558000
    37  N          0.13572800       0.22971400       0.04316000
    38  N          0.63572800       0.27028600       0.95684000
    39  N          0.86427200       0.72971400       0.45684000
    40  N          0.36427200       0.77028600       0.54316000
    41  O          0.67172100       0.62938800       0.17314000
    42  O          0.17172100       0.87061200       0.82686000
    43  O          0.32827900       0.12938800       0.32686000
    44  O          0.82827900       0.37061200       0.67314000
    45  O          0.40082600       0.49528900       0.11255000
    46  O          0.90082600       0.00471100       0.88745000
    47  O          0.59917400      -0.00471100       0.38745000
    48  O          0.09917400       0.50471100       0.61255000
    49  H          0.04831000       0.94083000       0.01460000
    50  H          0.54831000       0.55917000       0.98540000
    51  H          0.95169000       0.44083000       0.48540000
    52  H          0.45169000       0.05917000       0.51460000
    53  H          0.07931000       0.69983000       0.05970000
    54  H          0.57931000       0.80017000       0.94030000
    55  H          0.92069000       0.19983000       0.44030000
    56  H          0.42069000       0.30017000       0.55970000
    57  H          0.60732000       0.89383000       0.15670000
    58  H          0.10732000       0.60617000       0.84330000
    59  H          0.39268000       0.39383000       0.34330000
    60  H          0.89268000       0.10617000       0.65670000
    61  H          0.48234000       0.15816000       0.11560000
    62  H         -0.01766000       0.34184000       0.88440000
    63  H          0.51766000       0.65816000       0.38440000
    64  H          0.01766000       0.84184000       0.61560000
    65  H          0.66137000       0.39480000       0.22180000
    66  H          0.16137000       0.10520000       0.77820000
    67  H          0.33863000       0.89480000       0.27820000
    68  H          0.83863000       0.60520000       0.72180000
    69  H          0.81738000       0.41180000       0.15670000
    70  H          0.31738000       0.08820000       0.84330000
    71  H          0.18262000       0.91180000       0.34330000
    72  H          0.68262000       0.58820000       0.65670000
    73  H          0.85732000       0.57182000       0.28370000
    74  H          0.35732000       0.92818000       0.71630000
    75  H          0.14268000       0.07182000       0.21630000
    76  H          0.64268000       0.42818000       0.78370000
    77  H          0.08732000       0.43883000       0.26670000
    78  H          0.58732000       0.06117000       0.73330000
    79  H          0.91268000       0.93883000       0.23330000
    80  H          0.41268000       0.56117000       0.76670000
    81  H          0.12032000       0.60183000       0.22870000
    82  H          0.62032000       0.89817000       0.77130000
    83  H          0.87968000       0.10183000       0.27130000
    84  H          0.37968000       0.39817000       0.72870000
    85  H         -0.01834000       0.22418000       0.02470000
    86  H          0.48166000       0.27582000       0.97530000
    87  H          0.01834000       0.72418000       0.47530000
    88  H          0.51834000       0.77582000       0.52470000
    89  H          0.18934000       0.29817000       0.06270000
    90  H          0.68934000       0.20183000       0.93730000
    91  H          0.81066000       0.79817000       0.43730000
    92  H          0.31066000       0.70183000       0.56270000
