data_QQQAXG13
_symmetry_space_group_name_H-M    'P1'
_symmetry_Int_Tables_number       1
loop_
_symmetry_equiv_pos_site_id
_symmetry_equiv_pos_as_xyz
1 x,y,z
_cell_length_a                   6.30501
_cell_length_b                   5.18394
_cell_length_c                   24.948
_cell_angle_alpha                90.0
_cell_angle_beta                 96.258
_cell_angle_gamma                90.0
loop_
_atom_site_label
_atom_site_type_symbol
_atom_site_fract_x
_atom_site_fract_y
_atom_site_fract_z
     1  O          0.01759000       0.18158000       0.12931300
     2  O         -0.01759000       0.68158000       0.37068700
     3  O         -0.01759000       0.81842000       0.87068700
     4  O          0.01759000       0.31842000       0.62931300
     5  O          0.00587000       0.84608000       0.07608000
     6  O         -0.00587000       0.34608000       0.42392000
     7  O         -0.00587000       0.15392000       0.92392000
     8  O          0.00587000       0.65392000       0.57608000
     9  N          0.90371000       0.62361200       0.21101500
    10  N          0.09629000       0.12361200       0.28898500
    11  N          0.09629000       0.37638800       0.78898500
    12  N          0.90371000       0.87638800       0.71101500
    13  H          0.89740000       0.56880000       0.24360000
    14  H          0.10260000       0.06880000       0.25640000
    15  H          0.10260000       0.43120000       0.75640000
    16  H          0.89740000       0.93120000       0.74360000
    17  H          0.94280000       0.49920000       0.19120000
    18  H          0.05720000      -0.00080000       0.30880000
    19  H          0.05720000       0.50080000       0.80880000
    20  H          0.94280000       0.00080000       0.69120000
    21  C          0.30365000       0.88027000       0.14185000
    22  C          0.69635000       0.38027000       0.35815000
    23  C          0.69635000       0.11973000       0.85815000
    24  C          0.30365000       0.61973000       0.64185000
    25  C          0.41696000       0.01467000       0.18385000
    26  C          0.58304000       0.51467000       0.31615000
    27  C          0.58304000      -0.01467000       0.81615000
    28  C          0.41696000       0.48533000       0.68385000
    29  H          0.35960000       0.16350000       0.19720000
    30  H          0.64040000       0.66350000       0.30280000
    31  H          0.64040000       0.83650000       0.80280000
    32  H          0.35960000       0.33650000       0.69720000
    33  C          0.61596000       0.92678000       0.20575000
    34  C          0.38404000       0.42678000       0.29425000
    35  C          0.38404000       0.07322000       0.79425000
    36  C          0.61596000       0.57322000       0.70575000
    37  H          0.69170000       0.01670000       0.23380000
    38  H          0.30830000       0.51670000       0.26620000
    39  H          0.30830000      -0.01670000       0.76620000
    40  H          0.69170000       0.48330000       0.73380000
    41  C          0.70176000       0.70437000       0.18565000
    42  C          0.29824000       0.20437000       0.31435000
    43  C          0.29824000       0.29563000       0.81435000
    44  C          0.70176000       0.79563000       0.68565000
    45  C          0.58846000       0.56987000       0.14365000
    46  C          0.41154000       0.06987000       0.35635000
    47  C          0.41154000       0.43013000       0.85635000
    48  C          0.58846000       0.93013000       0.64365000
    49  H          0.64570000       0.42090000       0.13020000
    50  H          0.35430000       0.92090000       0.36980000
    51  H          0.35430000       0.57910000       0.86980000
    52  H          0.64570000       0.07910000       0.63020000
    53  C          0.38936000       0.65777000       0.12175000
    54  C          0.61064000       0.15777000       0.37825000
    55  C          0.61064000       0.34223000       0.87825000
    56  C          0.38936000       0.84223000       0.62175000
    57  H          0.31360000       0.56770000       0.09360000
    58  H          0.68640000       0.06770000       0.40640000
    59  H          0.68640000       0.43230000       0.90640000
    60  H          0.31360000       0.93230000       0.59360000
    61  C          0.09751200      -0.01518800       0.11611100
    62  C          0.90248800       0.48481200       0.38388900
    63  C          0.90248800       0.01518800       0.88388900
    64  C          0.09751200       0.51518800       0.61611100
    65  C          0.80588900       0.94011100       0.04641200
    66  C          0.19411100       0.44011100       0.45358800
    67  C          0.19411100       0.05988900       0.95358800
    68  C          0.80588900       0.55988900       0.54641200
    69  H          0.70140000      -0.02410000       0.07120000
    70  H          0.29860000       0.47590000       0.42880000
    71  H          0.29860000       0.02410000       0.92880000
    72  H          0.70140000       0.52410000       0.57120000
    73  H          0.83180000       0.09750000       0.02710000
    74  H          0.16820000       0.59750000       0.47290000
    75  H          0.16820000       0.90250000       0.97290000
    76  H          0.83180000       0.40250000       0.52710000
    77  C          0.72868700       0.73891200       0.00881400
    78  C          0.27131300       0.23891200       0.49118600
    79  C          0.27131300       0.26108800       0.99118600
    80  C          0.72868700       0.76108800       0.50881400
    81  H          0.82350000       0.72230000       0.98140000
    82  H          0.17650000       0.22230000       0.51860000
    83  H          0.17650000       0.27770000       0.01860000
    84  H          0.82350000       0.77770000       0.48140000
    85  H          0.58850000       0.78300000       0.99230000
    86  H          0.41150000       0.28300000       0.50770000
    87  H          0.41150000       0.21700000       0.00770000
    88  H          0.58850000       0.71700000       0.49230000
    89  H          0.72270000       0.57830000       0.02770000
    90  H          0.27730000       0.07830000       0.47230000
    91  H          0.27730000       0.42170000       0.97230000
    92  H          0.72270000       0.92170000       0.52770000
