data_QQQAXG02
_symmetry_space_group_name_H-M    'P1'
_symmetry_Int_Tables_number       1
loop_
_symmetry_equiv_pos_site_id
_symmetry_equiv_pos_as_xyz
1 x,y,z
_cell_length_a                   8.1982
_cell_length_b                   5.43001
_cell_length_c                   19.5925
_cell_angle_alpha                90.0
_cell_angle_beta                 91.3506
_cell_angle_gamma                90.0
loop_
_atom_site_label
_atom_site_type_symbol
_atom_site_fract_x
_atom_site_fract_y
_atom_site_fract_z
     1  O          0.77203000       0.40295000       0.36620100
     2  O          0.22797000       0.90295000       0.13379900
     3  O          0.22797000       0.59705000       0.63379900
     4  O          0.77203000       0.09705000       0.86620100
     5  O          0.63283000       0.68365000       0.42570100
     6  O          0.36717000       0.18365000       0.07429900
     7  O          0.36717000       0.31635000       0.57429900
     8  O          0.63283000       0.81635000       0.92570100
     9  N          0.02524000       0.12976000       0.29472000
    10  N          0.97476000       0.62976000       0.20528000
    11  N          0.97476000       0.87024000       0.70528000
    12  N          0.02524000       0.37024000       0.79472000
    13  H          0.93560000       0.20870000       0.30540000
    14  H          0.06440000       0.70870000       0.19460000
    15  H          0.06440000       0.79130000       0.69460000
    16  H          0.93560000       0.29130000       0.80540000
    17  H          0.01900000      -0.00530000       0.26990000
    18  H          0.98100000       0.49470000       0.23010000
    19  H          0.98100000       0.00530000       0.73010000
    20  H          0.01900000       0.50530000       0.76990000
    21  C          0.48084000       0.39847000       0.36022000
    22  C          0.51916000       0.89847000       0.13978000
    23  C          0.51916000       0.60153000       0.63978000
    24  C          0.48084000       0.10153000       0.86022000
    25  C          0.46795000       0.18687000       0.32052000
    26  C          0.53205000       0.68687000       0.17948000
    27  C          0.53205000       0.81313000       0.67948000
    28  C          0.46795000       0.31313000       0.82052000
    29  H          0.56430000       0.10240000       0.30810000
    30  H          0.43570000       0.60240000       0.19190000
    31  H          0.43570000       0.89760000       0.69190000
    32  H          0.56430000       0.39760000       0.80810000
    33  C          0.31804000       0.09677000       0.29872000
    34  C          0.68196000       0.59677000       0.20128000
    35  C          0.68196000       0.90323000       0.70128000
    36  C          0.31804000       0.40323000       0.79872000
    37  H          0.31240000       0.95240000       0.27140000
    38  H          0.68760000       0.45240000       0.22860000
    39  H          0.68760000       0.04760000       0.72860000
    40  H          0.31240000       0.54760000       0.77140000
    41  C          0.17475000       0.21707000       0.31682000
    42  C          0.82525000       0.71707000       0.18318000
    43  C          0.82525000       0.78293000       0.68318000
    44  C          0.17475000       0.28293000       0.81682000
    45  C          0.18615000       0.42978000       0.35602000
    46  C          0.81385000       0.92978000       0.14398000
    47  C          0.81385000       0.57022000       0.64398000
    48  C          0.18615000       0.07022000       0.85602000
    49  H          0.08960000       0.51420000       0.36820000
    50  H          0.91040000       0.01420000       0.13180000
    51  H          0.91040000       0.48580000       0.63180000
    52  H          0.08960000      -0.01420000       0.86820000
    53  C          0.33704000       0.52007000       0.37752000
    54  C          0.66296000       0.02007000       0.12248000
    55  C          0.66296000       0.47993000       0.62248000
    56  C          0.33704000      -0.02007000       0.87752000
    57  H          0.34280000       0.66580000       0.40420000
    58  H          0.65720000       0.16580000       0.09580000
    59  H          0.65720000       0.33420000       0.59580000
    60  H          0.34280000       0.83420000       0.90420000
    61  C          0.64175000       0.49107000       0.38312000
    62  C          0.35825000      -0.00893000       0.11688000
    63  C          0.35825000       0.50893000       0.61688000
    64  C          0.64175000       0.00893000       0.88312000
    65  C          0.78685000       0.78478000       0.44992000
    66  C          0.21315000       0.28478000       0.05008000
    67  C          0.21315000       0.21522000       0.55008000
    68  C          0.78685000       0.71522000       0.94992000
    69  H          0.84850000       0.85260000       0.41130000
    70  H          0.15150000       0.35260000       0.08870000
    71  H          0.15150000       0.14740000       0.58870000
    72  H          0.84850000       0.64740000       0.91130000
    73  H          0.85380000       0.65570000       0.47270000
    74  H          0.14620000       0.15570000       0.02730000
    75  H          0.14620000       0.34430000       0.52730000
    76  H          0.85380000       0.84430000       0.97270000
    77  C          0.74585000      -0.01373000       0.49982000
    78  C          0.25415000       0.48627000       0.00018000
    79  C          0.25415000       0.01373000       0.50018000
    80  C          0.74585000       0.51373000      -0.00018000
    81  H          0.67180000       0.10480000       0.47750000
    82  H          0.32820000       0.60480000       0.02250000
    83  H          0.32820000       0.89520000       0.52250000
    84  H          0.67180000       0.39520000       0.97750000
    85  H          0.84620000       0.07020000       0.51480000
    86  H          0.15380000       0.57020000       0.98520000
    87  H          0.15380000       0.92980000       0.48520000
    88  H          0.84620000       0.42980000       0.01480000
    89  H          0.69280000       0.91410000       0.53940000
    90  H          0.30720000       0.41410000       0.96060000
    91  H          0.30720000       0.08590000       0.46060000
    92  H          0.69280000       0.58590000       0.03940000
