data_QQQAUG22
_symmetry_space_group_name_H-M    'P1'
_symmetry_Int_Tables_number       1
loop_
_symmetry_equiv_pos_site_id
_symmetry_equiv_pos_as_xyz
1 x,y,z
_cell_length_a                   4.82961
_cell_length_b                   6.27031
_cell_length_c                   16.95512
_cell_angle_alpha                90.0
_cell_angle_beta                 92.2141
_cell_angle_gamma                90.0
loop_
_atom_site_label
_atom_site_type_symbol
_atom_site_fract_x
_atom_site_fract_y
_atom_site_fract_z
     1  S          0.24147160       0.94355870       0.37597400
     2  S          0.75852840       0.44355870       0.62402600
     3  S          0.69084160       0.94520860       0.09149400
     4  S          0.30915840       0.44520860       0.90850600
     5  Cl         0.39002170       0.39240150       0.14683500
     6  Cl         0.60997830       0.89240150       0.85316500
     7  O          0.06295000       0.82215000       0.42573140
     8  O          0.93705000       0.32215000       0.57426860
     9  O          0.45255000       0.82485000       0.33834150
    10  O          0.54745000       0.32485000       0.66165850
    11  O          0.83085000       0.74416000       0.09669150
    12  O          0.16915000       0.24416000       0.90330850
    13  O          0.39725000       0.94725000       0.07447140
    14  O          0.60275000       0.44725000       0.92552860
    15  N          0.38227000       0.13116000       0.42965180
    16  N          0.61773000       0.63116000       0.57034820
    17  N          0.03787000       0.38426000       0.38987180
    18  N          0.96213000       0.88426000       0.61012820
    19  N          0.82936000       0.08436000       0.02524170
    20  N          0.17064000       0.58436000       0.97475830
    21  C          0.25778000       0.31597000       0.43392000
    22  C          0.74222000       0.81597000       0.56608000
    23  H          0.33100400       0.41265500       0.47243700
    24  H          0.66899600       0.91265500       0.52756300
    25  C          0.93198000       0.27676000       0.32362000
    26  C          0.06802000       0.77676000       0.67638000
    27  C          0.03357000       0.07537000       0.30542000
    28  C          0.96643000       0.57537000       0.69458000
    29  C          0.95507000       0.97673000       0.23446190
    30  C          0.04493000       0.47673000       0.76553810
    31  H          0.03480200       0.84404900       0.22070300
    32  H          0.96519800       0.34404900       0.77929700
    33  C          0.75987000       0.07316000       0.18382000
    34  C          0.24013000       0.57316000       0.81618000
    35  C          0.64447000       0.27026000       0.20522000
    36  C          0.35553000       0.77026000       0.79478000
    37  C          0.73207000       0.37397000       0.27402000
    38  C          0.26793000       0.87397000       0.72598000
    39  H          0.65718000       0.50894300       0.28706600
    40  H          0.34282000       0.00894300       0.71293400
    41  H         -0.01010000       0.51440000       0.40330000
    42  H          0.01010000       0.01440000       0.59670000
    43  H          0.73180000       0.19350000       0.00730000
    44  H          0.26820000       0.69350000      -0.00730000
    45  H          0.00930000       0.09910000       0.02830000
    46  H         -0.00930000       0.59910000       0.97170000
