data_QQQAUG15
_symmetry_space_group_name_H-M    'P1'
_symmetry_Int_Tables_number       1
loop_
_symmetry_equiv_pos_site_id
_symmetry_equiv_pos_as_xyz
1 x,y,z
_cell_length_a                   4.51005
_cell_length_b                   5.92876
_cell_length_c                   8.5033
_cell_angle_alpha                76.52816
_cell_angle_beta                 85.62417
_cell_angle_gamma                83.2038
loop_
_atom_site_label
_atom_site_type_symbol
_atom_site_fract_x
_atom_site_fract_y
_atom_site_fract_z
     1  Cl         0.60894000       0.31885000       0.05978000
     2  S          0.61247000       0.07245000       0.57521000
     3  S          0.94804000       0.80285000       0.13581000
     4  O          0.84871400       0.89978800       0.63920000
     5  O          0.44271600       0.01411300       0.46220000
     6  O          0.11971500       0.58638800       0.13420000
     7  O          0.63228500       0.81008700       0.14520000
     8  N          0.75161900       0.31121400       0.49330000
     9  N          0.33951500       0.53311300       0.59320000
    10  N          0.04651900       0.89338400       0.28520000
    11  C          0.58420000       0.50520000       0.49930000
    12  C          0.23520000       0.35951500       0.71320000
    13  C          0.36620000       0.12941600       0.73181900
    14  C          0.28120000       0.96128500       0.85920000
    15  C          0.04611900       0.01061500       0.96220000
    16  C          0.90328200       0.23891400       0.93820000
    17  C         -0.00120000       0.41001400       0.81520000
    18  H          0.63800000       0.63620000       0.42370000
    19  H          0.27110000       0.66800000       0.59410000
    20  H          0.95410000      -0.00590000       0.33150000
    21  H          0.21860000       0.90620000       0.30350000
    22  H          0.37620000       0.81310000       0.87710000
    23  H          0.90650000       0.55900000       0.79920000
