data_QQQCIG14
_symmetry_space_group_name_H-M    'P1'
_symmetry_Int_Tables_number       1
loop_
_symmetry_equiv_pos_site_id
_symmetry_equiv_pos_as_xyz
1 x,y,z
_cell_length_a                   7.019614
_cell_length_b                   8.543217
_cell_length_c                   11.9482
_cell_angle_alpha                93.043
_cell_angle_beta                 105.583
_cell_angle_gamma                96.283
loop_
_atom_site_label
_atom_site_type_symbol
_atom_site_fract_x
_atom_site_fract_y
_atom_site_fract_z
     1  C          0.47143000       0.44762000       0.94576170
     2  C          0.52857000       0.55238000       0.05423830
     3  C          0.29243000       0.46402000       0.85884180
     4  C          0.70757000       0.53598000       0.14115820
     5  C          0.16203000       0.56723000       0.88137190
     6  C          0.83797000       0.43277000       0.11862810
     7  C          0.59873000       0.33332000       0.93061180
     8  C          0.40127000       0.66668000       0.06938820
     9  C          0.21663000       0.66883000       0.98744190
    10  C          0.78337000       0.33117000       0.01255810
    11  C          0.23953000       0.38893000       0.73646190
    12  C          0.76047000       0.61107000       0.26353810
    13  C          0.53533000       0.19853000       0.83734190
    14  C          0.46467000       0.80147000       0.16265810
    15  C          0.90726000       0.78553000       0.92162000
    16  C          0.09274000       0.21447000       0.07838000
    17  H          0.81980000       0.85720000       0.93510000
    18  H          0.18020000       0.14280000       0.06490000
    19  C          0.10223000       0.25303000       0.69902000
    20  C          0.89777000       0.74697000       0.30098000
    21  H          0.04940000       0.19920000       0.75380000
    22  H          0.95060000       0.80080000       0.24620000
    23  C         -0.02203000       0.58293000       0.79592000
    24  C          0.02203000       0.41707000       0.20408000
    25  H          0.94170000       0.51910000       0.72400000
    26  H          0.05830000       0.48090000       0.27600000
    27  C          0.08164000       0.77813000       0.00382000
    28  C          0.91836000       0.22187000      -0.00382000
    29  H          0.11540000       0.84620000       0.07350000
    30  H          0.88460000       0.15380000       0.92650000
    31  C          0.42104000       0.06383000       0.85472000
    32  C          0.57896000       0.93617000       0.14528000
    33  H          0.37570000       0.06180000       0.92280000
    34  H          0.62430000       0.93820000       0.07720000
    35  C          0.60243000       0.19803000       0.73772000
    36  C          0.39757000       0.80197000       0.26228000
    37  H          0.68280000       0.28830000       0.72450000
    38  H          0.31720000       0.71170000       0.27550000
    39  C          0.85506000       0.68723000       0.81592000
    40  C          0.14494000       0.31277000       0.18408000
    41  H          0.73350000       0.69410000       0.75860000
    42  H          0.26650000       0.30590000       0.24140000
    43  C          0.31134000       0.46703000       0.65372000
    44  C          0.68866000       0.53297000       0.34628000
    45  H          0.40310000       0.56080000       0.67740000
    46  H          0.59690000       0.43920000       0.32260000
    47  C          0.43804000       0.93327000       0.67572000
    48  C          0.56196000       0.06673000       0.32428000
    49  H          0.40500000       0.84350000       0.62050000
    50  H          0.59500000       0.15650000       0.37950000
    51  C          0.37154000       0.93167000       0.77482000
    52  C          0.62846000       0.06833000       0.22518000
    53  H          0.29240000       0.84080000       0.78800000
    54  H          0.70760000       0.15920000       0.21200000
    55  C          0.11614000       0.27313000       0.50112000
    56  C          0.88386000       0.72687000       0.49888000
    57  H          0.07520000       0.23320000       0.42150000
    58  H          0.92480000       0.76680000       0.57850000
    59  C          0.55254000       0.06633000       0.65752000
    60  C          0.44746000       0.93367000       0.34248000
    61  H          0.59760000       0.06770000       0.58930000
    62  H          0.40240000       0.93230000       0.41070000
    63  C          0.04224000       0.19553000       0.58232000
    64  C          0.95776000       0.80447000       0.41768000
    65  H          0.94970000       0.10220000       0.55810000
    66  H          0.05030000       0.89780000       0.44190000
    67  C          0.25034000       0.40953000       0.53682000
    68  C          0.74966000       0.59047000       0.46318000
    69  H          0.30080000       0.46390000       0.48140000
    70  H          0.69920000       0.53610000       0.51860000
