data_QQQCIG13
_symmetry_space_group_name_H-M    'P1'
_symmetry_Int_Tables_number       1
loop_
_symmetry_equiv_pos_site_id
_symmetry_equiv_pos_as_xyz
1 x,y,z
_cell_length_a                   8.739717
_cell_length_b                   10.1252
_cell_length_c                   15.6353
_cell_angle_alpha                90.0
_cell_angle_beta                 90.983
_cell_angle_gamma                90.0
loop_
_atom_site_label
_atom_site_type_symbol
_atom_site_fract_x
_atom_site_fract_y
_atom_site_fract_z
     1  C          0.17647150       0.27906130       0.18099900
     2  C          0.82352850       0.77906130       0.31900100
     3  C          0.82352850       0.72093870       0.81900100
     4  C          0.17647150       0.22093870       0.68099900
     5  H          0.22870000       0.32130000       0.13580000
     6  H          0.77130000       0.82130000       0.36420000
     7  H          0.77130000       0.67870000       0.86420000
     8  H          0.22870000       0.17870000       0.63580000
     9  C          0.21308160       0.31069140       0.26531900
    10  C          0.78691840       0.81069140       0.23468100
    11  C          0.78691840       0.68930860       0.73468100
    12  C          0.21308160       0.18930860       0.76531900
    13  H          0.29250000       0.37230000       0.27740000
    14  H          0.70750000       0.87230000       0.22260000
    15  H          0.70750000       0.62770000       0.72260000
    16  H          0.29250000       0.12770000       0.77740000
    17  C          0.13464170       0.25302150       0.33191900
    18  C          0.86535830       0.75302150       0.16808100
    19  C          0.86535830       0.74697850       0.66808100
    20  C          0.13464170       0.24697850       0.83191900
    21  H          0.15910000       0.27590000       0.38950000
    22  H          0.84090000       0.77590000       0.11050000
    23  H          0.84090000       0.72410000       0.61050000
    24  H          0.15910000       0.22410000       0.88950000
    25  C          0.02078170       0.16215140       0.31409900
    26  C          0.97921830       0.66215140       0.18590100
    27  C          0.97921830       0.83784860       0.68590100
    28  C          0.02078170       0.33784860       0.81409900
    29  H          0.96620000       0.12270000       0.35950000
    30  H          0.03380000       0.62270000       0.14050000
    31  H          0.03380000       0.87730000       0.64050000
    32  H          0.96620000       0.37730000       0.85950000
    33  C         -0.01406150       0.12832130       0.22990800
    34  C          0.01406150       0.62832130       0.27009200
    35  C          0.01406150       0.87167870       0.77009200
    36  C         -0.01406150       0.37167870       0.72990800
    37  H          0.90800000       0.06510000       0.21820000
    38  H          0.09200000       0.56510000       0.28180000
    39  H          0.09200000       0.93490000       0.78180000
    40  H          0.90800000       0.43490000       0.71820000
    41  C          0.06385140       0.18589120       0.16235800
    42  C          0.93614860       0.68589120       0.33764200
    43  C          0.93614860       0.81410880       0.83764200
    44  C          0.06385140       0.31410880       0.66235800
    45  C          0.01065140       0.14837120       0.07359800
    46  C         -0.01065140       0.64837120       0.42640200
    47  C         -0.01065140       0.85162880       0.92640200
    48  C          0.01065140       0.35162880       0.57359800
    49  C          0.04701140       0.02417120       0.03590800
    50  C          0.95298860       0.52417120       0.46409200
    51  C          0.95298860       0.97582880       0.96409200
    52  C          0.04701140       0.47582880       0.53590800
    53  C          0.17338140       0.94658120       0.06548800
    54  C          0.82661860       0.44658120       0.43451200
    55  C          0.82661860       0.05341880       0.93451200
    56  C          0.17338140       0.55341880       0.56548800
    57  C          0.29635140       0.00181130       0.12276800
    58  C          0.70364860       0.50181130       0.37723200
    59  C          0.70364860      -0.00181130       0.87723200
    60  C          0.29635140       0.49818870       0.62276800
    61  C          0.40605150       0.08424140       0.08810900
    62  C          0.59394850       0.58424140       0.41189100
    63  C          0.59394850       0.91575860       0.91189100
    64  C          0.40605150       0.41575860       0.58810900
    65  H          0.39950000       0.10720000       0.02920000
    66  H          0.60050000       0.60720000       0.47080000
    67  H          0.60050000       0.89280000       0.97080000
    68  H          0.39950000       0.39280000       0.52920000
    69  C          0.52543160       0.13364160       0.13854100
    70  C          0.47456840       0.63364160       0.36145900
    71  C          0.47456840       0.86635840       0.86145900
    72  C          0.52543160       0.36635840       0.63854100
    73  H          0.59950000       0.19050000       0.11430000
    74  H          0.40050000       0.69050000       0.38570000
    75  H          0.40050000       0.80950000       0.88570000
    76  H          0.59950000       0.30950000       0.61430000
    77  C          0.53619160       0.09981160       0.22427100
    78  C          0.46380840       0.59981160       0.27572900
    79  C          0.46380840       0.90018840       0.77572900
    80  C          0.53619160       0.40018840       0.72427100
    81  H          0.61700000       0.13410000       0.25900000
    82  H          0.38300000       0.63410000       0.24100000
    83  H          0.38300000       0.86590000       0.74100000
    84  H          0.61700000       0.36590000       0.75900000
    85  C          0.42887170       0.01592150       0.25916900
    86  C          0.57112830       0.51592150       0.24083100
    87  C          0.57112830       0.98407850       0.74083100
    88  C          0.42887170       0.48407850       0.75916900
    89  H          0.43690000      -0.00790000       0.31780000
    90  H          0.56310000       0.49210000       0.18220000
    91  H          0.56310000       0.00790000       0.68220000
    92  H          0.43690000       0.50790000       0.81780000
    93  C          0.30981150       0.96647140       0.20905800
    94  C          0.69018850       0.46647140       0.29094200
    95  C          0.69018850       0.03352860       0.79094200
    96  C          0.30981150       0.53352860       0.70905800
    97  H          0.23710000       0.90840000       0.23340000
    98  H          0.76290000       0.40840000       0.26660000
    99  H          0.76290000       0.09160000       0.76660000
   100  H          0.23710000       0.59160000       0.73340000
   101  C          0.19559140       0.81858120       0.03378800
   102  C          0.80440860       0.31858120       0.46621200
   103  C          0.80440860       0.18141880       0.96621200
   104  C          0.19559140       0.68141880       0.53378800
   105  C          0.31725150       0.73539140       0.06523800
   106  C          0.68274850       0.23539140       0.43476200
   107  C          0.68274850       0.26460860       0.93476200
   108  C          0.31725150       0.76460860       0.56523800
   109  H          0.38550000       0.76820000       0.10810000
   110  H          0.61450000       0.26820000       0.39190000
   111  H          0.61450000       0.23180000       0.89190000
   112  H          0.38550000       0.73180000       0.60810000
   113  C          0.33697170       0.61086140       0.03502900
   114  C          0.66302830       0.11086140       0.46497100
   115  C          0.66302830       0.38913860       0.96497100
   116  C          0.33697170       0.88913860       0.53502900
   117  H          0.41630000       0.55690000       0.05830000
   118  H          0.58370000       0.05690000       0.44170000
   119  H          0.58370000       0.44310000       0.94170000
   120  H          0.41630000       0.94310000       0.55830000
   121  C          0.23994170       0.56078140       0.96891100
   122  C          0.76005830       0.06078140       0.53108900
   123  C          0.76005830       0.43921860       0.03108900
   124  C          0.23994170       0.93921860       0.46891100
   125  H          0.25260000       0.47270000       0.94930000
   126  H          0.74740000       0.97270000       0.55070000
   127  H          0.74740000       0.52730000       0.05070000
   128  H          0.25260000       0.02730000       0.44930000
   129  C          0.12899160       0.63859130       0.93371100
   130  C          0.87100840       0.13859130       0.56628900
   131  C          0.87100840       0.36140870       0.06628900
   132  C          0.12899160       0.86140870       0.43371100
   133  H          0.06880000       0.60550000       0.88730000
   134  H          0.93120000       0.10550000       0.61270000
   135  H          0.93120000       0.39450000       0.11270000
   136  H          0.06880000       0.89450000       0.38730000
   137  C          0.10034140       0.76952120       0.96490200
   138  C          0.89965860       0.26952120       0.53509800
   139  C          0.89965860       0.23047880       0.03509800
   140  C          0.10034140       0.73047880       0.46490200
