data_QQQCIG30
_symmetry_space_group_name_H-M    'P1'
_symmetry_Int_Tables_number       1
loop_
_symmetry_equiv_pos_site_id
_symmetry_equiv_pos_as_xyz
1 x,y,z
_cell_length_a                   14.239516
_cell_length_b                   6.773813
_cell_length_c                   11.28101
_cell_angle_alpha                81.26414
_cell_angle_beta                 100.3781
_cell_angle_gamma                101.7731
loop_
_atom_site_label
_atom_site_type_symbol
_atom_site_fract_x
_atom_site_fract_y
_atom_site_fract_z
     1  C          0.37733000       0.59521200       0.26065000
     2  C          0.62267000       0.40478800       0.73935000
     3  C          0.39943000       0.80561200       0.25495000
     4  C          0.60057000       0.19438800       0.74505000
     5  H          0.40140000       0.88490000       0.18010000
     6  H          0.59860000       0.11510000       0.81990000
     7  C          0.41843000       0.89761200       0.36096000
     8  C          0.58157000       0.10238800       0.63904000
     9  H          0.43320000       0.03850000       0.35710000
    10  H          0.56680000       0.96150000       0.64290000
    11  C          0.41543000       0.77921300       0.47265000
    12  C          0.58457000       0.22078700       0.52735000
    13  H          0.42820000       0.84070000       0.54350000
    14  H          0.57180000       0.15930000       0.45650000
    15  C          0.39333000       0.56871200       0.47835000
    16  C          0.60667000       0.43128800       0.52165000
    17  H          0.39130000       0.48940000       0.55300000
    18  H          0.60870000       0.51060000       0.44700000
    19  C          0.37423000       0.47671200       0.37236000
    20  C          0.62577000       0.52328800       0.62764000
    21  H          0.35940000       0.33590000       0.37610000
    22  H          0.64060000       0.66410000       0.62390000
    23  C          0.20683000       0.75781200       0.17235000
    24  C          0.79317000       0.24218800       0.82765000
    25  C          0.22743000       0.96831200       0.14824000
    26  C          0.77257000       0.03168800       0.85176000
    27  H          0.24250000       0.02880000       0.07270000
    28  H          0.75750000       0.97120000       0.92730000
    29  C          0.22543000       0.08821100       0.23715000
    30  C          0.77457000       0.91178900       0.76285000
    31  H          0.23920000       0.22900000       0.22090000
    32  H          0.76080000       0.77100000       0.77910000
    33  C          0.20293000      -0.00228800       0.35005000
    34  C          0.79707000       0.00228800       0.64995000
    35  H          0.20160000       0.07800000       0.40950000
    36  H          0.79840000       0.92200000       0.59050000
    37  C          0.18233000       0.78731200       0.37414000
    38  C          0.81767000       0.21268800       0.62586000
    39  H          0.16720000       0.72680000       0.44970000
    40  H          0.83280000       0.27320000       0.55030000
    41  C          0.18433000       0.66741100       0.28535000
    42  C          0.81567000       0.33258900       0.71465000
    43  H          0.17050000       0.52660000       0.30140000
    44  H          0.82950000       0.47340000       0.69860000
    45  C          0.14283000       0.36941200       0.73686000
    46  C          0.85717000       0.63058800       0.26314000
    47  C          0.05383000       0.24331200       0.70875000
    48  C          0.94617000       0.75668800       0.29125000
    49  H          0.01360000       0.19780000       0.76760000
    50  H          0.98640000       0.80220000       0.23240000
    51  C          0.02483000       0.18511200       0.59285000
    52  C          0.97517000       0.81488800       0.40715000
    53  H          0.96530000       0.10070000       0.57410000
    54  H          0.03470000       0.89930000       0.42590000
    55  C          0.08483000       0.25311200       0.50496000
    56  C          0.91517000       0.74688800       0.49504000
    57  H          0.06550000       0.21410000       0.42740000
    58  H          0.93450000       0.78590000       0.57260000
    59  C          0.17383000       0.37921200       0.53296000
    60  C          0.82617000       0.62078800       0.46704000
    61  H          0.21400000       0.42470000       0.47420000
    62  H          0.78600000       0.57530000       0.52580000
    63  C          0.20283000       0.43741200       0.64885000
    64  C          0.79717000       0.56258800       0.35115000
    65  H          0.26240000       0.52180000       0.66770000
    66  H          0.73760000       0.47820000       0.33230000
    67  C          0.30513000       0.18121200       0.82445000
    68  C          0.69487000       0.81878800       0.17555000
    69  C          0.22473000       0.02701200       0.80745000
    70  C          0.77527000       0.97298800       0.19255000
    71  H          0.18060000      -0.00310000       0.86210000
    72  H          0.81940000       0.00310000       0.13790000
    73  C          0.21033000       0.91778900       0.70885000
    74  C          0.78967000       0.08221100       0.29115000
    75  H          0.15650000       0.81460000       0.69760000
    76  H          0.84350000       0.18540000       0.30240000
    77  C          0.27623000       0.96268800       0.62725000
    78  C          0.72377000       0.03731200       0.37275000
    79  H          0.26650000       0.88970000       0.56130000
    80  H          0.73350000       0.11030000       0.43870000
    81  C          0.35663000       0.11691200       0.64425000
    82  C          0.64337000       0.88308800       0.35575000
    83  H          0.40070000       0.14700000       0.58970000
    84  H          0.59930000       0.85300000       0.41030000
    85  C          0.37113000       0.22611100       0.74285000
    86  C          0.62887000       0.77388900       0.25715000
    87  H          0.42490000       0.32930000       0.75420000
    88  H          0.57510000       0.67070000       0.24580000
    89  C          0.04635000       0.75720000       0.00761000
    90  C          0.95365000       0.24280000      -0.00761000
    91  H          0.05200000       0.80190000       0.08310000
    92  H          0.94800000       0.19810000       0.91690000
    93  C          0.97076000       0.79420000       0.92199000
    94  C          0.02924000       0.20580000       0.07801000
    95  H          0.92430000       0.86030000       0.93800000
    96  H          0.07570000       0.13970000       0.06200000
    97  C          0.96396000       0.72820000       0.80759000
    98  C          0.03604000       0.27180000       0.19241000
    99  H          0.91540000       0.76300000       0.74580000
   100  H          0.08460000       0.23700000       0.25420000
   101  C          0.02444000       0.61820000       0.78519000
   102  C          0.97556000       0.38180000       0.21481000
   103  H          0.01520000       0.57260000       0.70950000
   104  H          0.98480000       0.42740000       0.29050000
   105  C          0.10304000       0.56920000       0.87461000
   106  C          0.89696000       0.43080000       0.12539000
   107  C          0.11724000       0.65420000       0.98641000
   108  C          0.88276000       0.34580000       0.01359000
   109  C          0.40504000       0.29420000       0.01449000
   110  C          0.59496000       0.70580000       0.98551000
   111  C          0.41634000       0.38120000       0.12651000
   112  C          0.58366000       0.61880000       0.87349000
   113  C          0.49834000       0.34320000       0.21551000
   114  C          0.50166000       0.65680000       0.78449000
   115  H          0.50120000       0.37370000       0.29390000
   116  H          0.49880000       0.62630000       0.70610000
   117  C          0.57075000       0.26720000       0.19031000
   118  C          0.42925000       0.73280000       0.80969000
   119  H          0.62490000       0.25380000       0.24870000
   120  H          0.37510000       0.74620000       0.75130000
   121  C          0.56475000       0.20630000       0.07471000
   122  C          0.43525000       0.79370000       0.92529000
   123  H          0.61630000       0.15870000       0.05510000
   124  H          0.38370000       0.84130000       0.94490000
   125  C          0.48304000       0.21520000      -0.00771000
   126  C          0.51696000       0.78480000       0.00771000
   127  H          0.47870000       0.16800000       0.91800000
   128  H          0.52130000       0.83200000       0.08200000
   129  C          0.32074000       0.30620000       0.92939000
   130  C          0.67926000       0.69380000       0.07061000
   131  C          0.35184000       0.49620000       0.14451000
   132  C          0.64816000       0.50380000       0.85549000
   133  C          0.26864000       0.52320000       0.05669000
   134  C          0.73136000       0.47680000       0.94331000
   135  C          0.25044000       0.41520000       0.94641000
   136  C          0.74956000       0.58480000       0.05359000
   137  C          0.16774000       0.44620000       0.85809000
   138  C          0.83226000       0.55380000       0.14191000
   139  C          0.20014000       0.63920000       0.07051000
   140  C          0.79986000       0.36080000       0.92949000
