data_QQQCIG01
_symmetry_space_group_name_H-M    'P1'
_symmetry_Int_Tables_number       1
loop_
_symmetry_equiv_pos_site_id
_symmetry_equiv_pos_as_xyz
1 x,y,z
_cell_length_a                   7.1841
_cell_length_b                   14.4333
_cell_length_c                   26.8977
_cell_angle_alpha                90.0
_cell_angle_beta                 90.0
_cell_angle_gamma                90.0
loop_
_atom_site_label
_atom_site_type_symbol
_atom_site_fract_x
_atom_site_fract_y
_atom_site_fract_z
     1  C          0.00000000       0.00000000       0.02730000
     2  C          0.50000000       0.00000000       0.52730000
     3  C          0.50000000       0.50000000       0.97270000
     4  C         -0.00000000       0.50000000       0.47270000
     5  C         -0.00000000       0.00000000       0.97270000
     6  C          0.50000000       0.00000000       0.47270000
     7  C          0.50000000       0.50000000       0.02730000
     8  C          0.00000000       0.50000000       0.52730000
     9  C          0.14280000       0.04900000       0.05270000
    10  C          0.85720000       0.95100000       0.05270000
    11  C          0.64280000       0.04900000       0.55270000
    12  C          0.35720000       0.95100000       0.55270000
    13  C          0.64280000       0.45100000       0.94730000
    14  C          0.35720000       0.54900000       0.94730000
    15  C          0.14280000       0.45100000       0.44730000
    16  C          0.85720000       0.54900000       0.44730000
    17  C          0.85720000       0.95100000       0.94730000
    18  C          0.14280000       0.04900000       0.94730000
    19  C          0.35720000       0.95100000       0.44730000
    20  C          0.64280000       0.04900000       0.44730000
    21  C          0.35720000       0.54900000       0.05270000
    22  C          0.64280000       0.45100000       0.05270000
    23  C          0.85720000       0.54900000       0.55270000
    24  C          0.14280000       0.45100000       0.55270000
    25  C          0.29260000       0.08750000       0.02680000
    26  C          0.70740000       0.91250000       0.02680000
    27  C          0.79260000       0.08750000       0.52680000
    28  C          0.20740000       0.91250000       0.52680000
    29  C          0.79260000       0.41250000       0.97320000
    30  C          0.20740000       0.58750000       0.97320000
    31  C          0.29260000       0.41250000       0.47320000
    32  C          0.70740000       0.58750000       0.47320000
    33  C          0.70740000       0.91250000       0.97320000
    34  C          0.29260000       0.08750000       0.97320000
    35  C          0.20740000       0.91250000       0.47320000
    36  C          0.79260000       0.08750000       0.47320000
    37  C          0.20740000       0.58750000       0.02680000
    38  C          0.79260000       0.41250000       0.02680000
    39  C          0.70740000       0.58750000       0.52680000
    40  C          0.29260000       0.41250000       0.52680000
    41  C          0.44300000       0.13360000       0.05150000
    42  C          0.55700000       0.86640000       0.05150000
    43  C          0.94300000       0.13360000       0.55150000
    44  C          0.05700000       0.86640000       0.55150000
    45  C          0.94300000       0.36640000       0.94850000
    46  C          0.05700000       0.63360000       0.94850000
    47  C          0.44300000       0.36640000       0.44850000
    48  C          0.55700000       0.63360000       0.44850000
    49  C          0.55700000       0.86640000       0.94850000
    50  C          0.44300000       0.13360000       0.94850000
    51  C          0.05700000       0.86640000       0.44850000
    52  C          0.94300000       0.13360000       0.44850000
    53  C          0.05700000       0.63360000       0.05150000
    54  C          0.94300000       0.36640000       0.05150000
    55  C          0.55700000       0.63360000       0.55150000
    56  C          0.44300000       0.36640000       0.55150000
    57  C          0.58310000       0.17450000       0.02630000
    58  C          0.41690000       0.82550000       0.02630000
    59  C          0.08310000       0.17450000       0.52630000
    60  C          0.91690000       0.82550000       0.52630000
    61  C          0.08310000       0.32550000       0.97370000
    62  C          0.91690000       0.67450000       0.97370000
    63  C          0.58310000       0.32550000       0.47370000
    64  C          0.41690000       0.67450000       0.47370000
    65  C          0.41690000       0.82550000       0.97370000
    66  C          0.58310000       0.17450000       0.97370000
    67  C          0.91690000       0.82550000       0.47370000
    68  C          0.08310000       0.17450000       0.47370000
    69  C          0.91690000       0.67450000       0.02630000
    70  C          0.08310000       0.32550000       0.02630000
    71  C          0.41690000       0.67450000       0.52630000
    72  C          0.58310000       0.32550000       0.52630000
    73  C          0.13210000       0.07260000       0.10720000
    74  C          0.86790000       0.92740000       0.10720000
    75  C          0.63210000       0.07260000       0.60720000
    76  C          0.36790000       0.92740000       0.60720000
    77  C          0.63210000       0.42740000       0.89280000
    78  C          0.36790000       0.57260000       0.89280000
    79  C          0.13210000       0.42740000       0.39280000
    80  C          0.86790000       0.57260000       0.39280000
    81  C          0.86790000       0.92740000       0.89280000
    82  C          0.13210000       0.07260000       0.89280000
    83  C          0.36790000       0.92740000       0.39280000
    84  C          0.63210000       0.07260000       0.39280000
    85  C          0.36790000       0.57260000       0.10720000
    86  C          0.63210000       0.42740000       0.10720000
    87  C          0.86790000       0.57260000       0.60720000
    88  C          0.13210000       0.42740000       0.60720000
    89  C          0.02220000       0.14640000       0.12190000
    90  C          0.97780000       0.85360000       0.12190000
    91  C          0.52220000       0.14640000       0.62190000
    92  C          0.47780000       0.85360000       0.62190000
    93  C          0.52220000       0.35360000       0.87810000
    94  C          0.47780000       0.64640000       0.87810000
    95  C          0.02220000       0.35360000       0.37810000
    96  C          0.97780000       0.64640000       0.37810000
    97  C          0.97780000       0.85360000       0.87810000
    98  C          0.02220000       0.14640000       0.87810000
    99  C          0.47780000       0.85360000       0.37810000
   100  C          0.52220000       0.14640000       0.37810000
   101  C          0.47780000       0.64640000       0.12190000
   102  C          0.52220000       0.35360000       0.12190000
   103  C          0.97780000       0.64640000       0.62190000
   104  C          0.02220000       0.35360000       0.62190000
   105  C          0.02230000       0.17640000       0.17110000
   106  C          0.97770000       0.82360000       0.17110000
   107  C          0.52230000       0.17640000       0.67110000
   108  C          0.47770000       0.82360000       0.67110000
   109  C          0.52230000       0.32360000       0.82890000
   110  C          0.47770000       0.67640000       0.82890000
   111  C          0.02230000       0.32360000       0.32890000
   112  C          0.97770000       0.67640000       0.32890000
   113  C          0.97770000       0.82360000       0.82890000
   114  C          0.02230000       0.17640000       0.82890000
   115  C          0.47770000       0.82360000       0.32890000
   116  C          0.52230000       0.17640000       0.32890000
   117  C          0.47770000       0.67640000       0.17110000
   118  C          0.52230000       0.32360000       0.17110000
   119  C          0.97770000       0.67640000       0.67110000
   120  C          0.02230000       0.32360000       0.67110000
   121  C          0.13500000       0.13350000       0.20540000
   122  C          0.86500000       0.86650000       0.20540000
   123  C          0.63500000       0.13350000       0.70540000
   124  C          0.36500000       0.86650000       0.70540000
   125  C          0.63500000       0.36650000       0.79460000
   126  C          0.36500000       0.63350000       0.79460000
   127  C          0.13500000       0.36650000       0.29460000
   128  C          0.86500000       0.63350000       0.29460000
   129  C          0.86500000       0.86650000       0.79460000
   130  C          0.13500000       0.13350000       0.79460000
   131  C          0.36500000       0.86650000       0.29460000
   132  C          0.63500000       0.13350000       0.29460000
   133  C          0.36500000       0.63350000       0.20540000
   134  C          0.63500000       0.36650000       0.20540000
   135  C          0.86500000       0.63350000       0.70540000
   136  C          0.13500000       0.36650000       0.70540000
   137  C          0.24510000       0.06100000       0.19100000
   138  C          0.75490000       0.93900000       0.19100000
   139  C          0.74510000       0.06100000       0.69100000
   140  C          0.25490000       0.93900000       0.69100000
   141  C          0.74510000       0.43900000       0.80900000
   142  C          0.25490000       0.56100000       0.80900000
   143  C          0.24510000       0.43900000       0.30900000
   144  C          0.75490000       0.56100000       0.30900000
   145  C          0.75490000       0.93900000       0.80900000
   146  C          0.24510000       0.06100000       0.80900000
   147  C          0.25490000       0.93900000       0.30900000
   148  C          0.74510000       0.06100000       0.30900000
   149  C          0.25490000       0.56100000       0.19100000
   150  C          0.74510000       0.43900000       0.19100000
   151  C          0.75490000       0.56100000       0.69100000
   152  C          0.24510000       0.43900000       0.69100000
   153  C          0.24430000       0.03010000       0.14230000
   154  C          0.75570000       0.96990000       0.14230000
   155  C          0.74430000       0.03010000       0.64230000
   156  C          0.25570000       0.96990000       0.64230000
   157  C          0.74430000       0.46990000       0.85770000
   158  C          0.25570000       0.53010000       0.85770000
   159  C          0.24430000       0.46990000       0.35770000
   160  C          0.75570000       0.53010000       0.35770000
   161  C          0.75570000       0.96990000       0.85770000
   162  C          0.24430000       0.03010000       0.85770000
   163  C          0.25570000       0.96990000       0.35770000
   164  C          0.74430000       0.03010000       0.35770000
   165  C          0.25570000       0.53010000       0.14230000
   166  C          0.74430000       0.46990000       0.14230000
   167  C          0.75570000       0.53010000       0.64230000
   168  C          0.24430000       0.46990000       0.64230000
   169  H          0.43700000       0.13800000       0.08800000
   170  H          0.56300000       0.86200000       0.08800000
   171  H          0.93700000       0.13800000       0.58800000
   172  H          0.06300000       0.86200000       0.58800000
   173  H          0.93700000       0.36200000       0.91200000
   174  H          0.06300000       0.63800000       0.91200000
   175  H          0.43700000       0.36200000       0.41200000
   176  H          0.56300000       0.63800000       0.41200000
   177  H          0.56300000       0.86200000       0.91200000
   178  H          0.43700000       0.13800000       0.91200000
   179  H          0.06300000       0.86200000       0.41200000
   180  H          0.93700000       0.13800000       0.41200000
   181  H          0.06300000       0.63800000       0.08800000
   182  H          0.93700000       0.36200000       0.08800000
   183  H          0.56300000       0.63800000       0.58800000
   184  H          0.43700000       0.36200000       0.58800000
   185  H          0.68600000       0.20700000       0.04500000
   186  H          0.31400000       0.79300000       0.04500000
   187  H          0.18600000       0.20700000       0.54500000
   188  H          0.81400000       0.79300000       0.54500000
   189  H          0.18600000       0.29300000       0.95500000
   190  H          0.81400000       0.70700000       0.95500000
   191  H          0.68600000       0.29300000       0.45500000
   192  H          0.31400000       0.70700000       0.45500000
   193  H          0.31400000       0.79300000       0.95500000
   194  H          0.68600000       0.20700000       0.95500000
   195  H          0.81400000       0.79300000       0.45500000
   196  H          0.18600000       0.20700000       0.45500000
   197  H          0.81400000       0.70700000       0.04500000
   198  H          0.18600000       0.29300000       0.04500000
   199  H          0.31400000       0.70700000       0.54500000
   200  H          0.68600000       0.29300000       0.54500000
   201  H          0.94200000       0.17800000       0.09700000
   202  H          0.05800000       0.82200000       0.09700000
   203  H          0.44200000       0.17800000       0.59700000
   204  H          0.55800000       0.82200000       0.59700000
   205  H          0.44200000       0.32200000       0.90300000
   206  H          0.55800000       0.67800000       0.90300000
   207  H          0.94200000       0.32200000       0.40300000
   208  H          0.05800000       0.67800000       0.40300000
   209  H          0.05800000       0.82200000       0.90300000
   210  H          0.94200000       0.17800000       0.90300000
   211  H          0.55800000       0.82200000       0.40300000
   212  H          0.44200000       0.17800000       0.40300000
   213  H          0.55800000       0.67800000       0.09700000
   214  H          0.44200000       0.32200000       0.09700000
   215  H          0.05800000       0.67800000       0.59700000
   216  H          0.94200000       0.32200000       0.59700000
   217  H          0.94000000       0.23200000       0.18000000
   218  H          0.06000000       0.76800000       0.18000000
   219  H          0.44000000       0.23200000       0.68000000
   220  H          0.56000000       0.76800000       0.68000000
   221  H          0.44000000       0.26800000       0.82000000
   222  H          0.56000000       0.73200000       0.82000000
   223  H          0.94000000       0.26800000       0.32000000
   224  H          0.06000000       0.73200000       0.32000000
   225  H          0.06000000       0.76800000       0.82000000
   226  H          0.94000000       0.23200000       0.82000000
   227  H          0.56000000       0.76800000       0.32000000
   228  H          0.44000000       0.23200000       0.32000000
   229  H          0.56000000       0.73200000       0.18000000
   230  H          0.44000000       0.26800000       0.18000000
   231  H          0.06000000       0.73200000       0.68000000
   232  H          0.94000000       0.26800000       0.68000000
   233  H          0.13700000       0.15600000       0.24100000
   234  H          0.86300000       0.84400000       0.24100000
   235  H          0.63700000       0.15600000       0.74100000
   236  H          0.36300000       0.84400000       0.74100000
   237  H          0.63700000       0.34400000       0.75900000
   238  H          0.36300000       0.65600000       0.75900000
   239  H          0.13700000       0.34400000       0.25900000
   240  H          0.86300000       0.65600000       0.25900000
   241  H          0.86300000       0.84400000       0.75900000
   242  H          0.13700000       0.15600000       0.75900000
   243  H          0.36300000       0.84400000       0.25900000
   244  H          0.63700000       0.15600000       0.25900000
   245  H          0.36300000       0.65600000       0.24100000
   246  H          0.63700000       0.34400000       0.24100000
   247  H          0.86300000       0.65600000       0.74100000
   248  H          0.13700000       0.34400000       0.74100000
   249  H          0.33100000       0.02900000       0.21500000
   250  H          0.66900000       0.97100000       0.21500000
   251  H          0.83100000       0.02900000       0.71500000
   252  H          0.16900000       0.97100000       0.71500000
   253  H          0.83100000       0.47100000       0.78500000
   254  H          0.16900000       0.52900000       0.78500000
   255  H          0.33100000       0.47100000       0.28500000
   256  H          0.66900000       0.52900000       0.28500000
   257  H          0.66900000       0.97100000       0.78500000
   258  H          0.33100000       0.02900000       0.78500000
   259  H          0.16900000       0.97100000       0.28500000
   260  H          0.83100000       0.02900000       0.28500000
   261  H          0.16900000       0.52900000       0.21500000
   262  H          0.83100000       0.47100000       0.21500000
   263  H          0.66900000       0.52900000       0.71500000
   264  H          0.33100000       0.47100000       0.71500000
   265  H          0.32300000       0.97400000       0.13200000
   266  H          0.67700000       0.02600000       0.13200000
   267  H          0.82300000       0.97400000       0.63200000
   268  H          0.17700000       0.02600000       0.63200000
   269  H          0.82300000       0.52600000       0.86800000
   270  H          0.17700000       0.47400000       0.86800000
   271  H          0.32300000       0.52600000       0.36800000
   272  H          0.67700000       0.47400000       0.36800000
   273  H          0.67700000       0.02600000       0.86800000
   274  H          0.32300000       0.97400000       0.86800000
   275  H          0.17700000       0.02600000       0.36800000
   276  H          0.82300000       0.97400000       0.36800000
   277  H          0.17700000       0.47400000       0.13200000
   278  H          0.82300000       0.52600000       0.13200000
   279  H          0.67700000       0.47400000       0.63200000
   280  H          0.32300000       0.52600000       0.63200000
