data_QQQFDJ02
_symmetry_space_group_name_H-M    'P1'
_symmetry_Int_Tables_number       1
loop_
_symmetry_equiv_pos_site_id
_symmetry_equiv_pos_as_xyz
1 x,y,z
_cell_length_a                   3.889619
_cell_length_b                   9.3845
_cell_length_c                   14.8527
_cell_angle_alpha                101.7847
_cell_angle_beta                 95.4577
_cell_angle_gamma                90.2207
loop_
_atom_site_label
_atom_site_type_symbol
_atom_site_fract_x
_atom_site_fract_y
_atom_site_fract_z
     1  C          0.82668800       0.04955000       0.38193000
     2  C          0.17331200       0.95045000       0.61807000
     3  H          0.78600000       0.11940000       0.43370000
     4  H          0.21400000       0.88060000       0.56630000
     5  C          0.75228700       0.90785000       0.38014000
     6  C          0.24771300       0.09215000       0.61986000
     7  H          0.66500000       0.88200000       0.43080000
     8  H          0.33500000       0.11800000       0.56920000
     9  C          0.80578700       0.79915000       0.30234000
    10  C          0.19421300       0.20085000       0.69766000
    11  H          0.75830000       0.70210000       0.30230000
    12  H          0.24170000       0.29790000       0.69770000
    13  C          0.92568800       0.83605000       0.22784000
    14  C          0.07431200       0.16395000       0.77216000
    15  H          0.95320000       0.76390000       0.17600000
    16  H          0.04680000       0.23610000       0.82400000
    17  C          0.01051100      -0.01794000       0.22663000
    18  C         -0.01051100       0.01794000       0.77337000
    19  C          0.33041300       0.20325000       0.06633000
    20  C          0.66958700       0.79675000       0.93367000
    21  H          0.36210000       0.13020000       0.01530000
    22  H          0.63790000       0.86980000       0.98470000
    23  C          0.40081400       0.34176000       0.06333000
    24  C          0.59918600       0.65824000       0.93667000
    25  H          0.47730000       0.36410000       0.01020000
    26  H          0.52270000       0.63590000       0.98980000
    27  C          0.35901400       0.45425000       0.14063000
    28  C          0.64098600       0.54575000       0.85937000
    29  H          0.40950000       0.55020000       0.13830000
    30  H          0.59050000       0.44980000       0.86170000
    31  C          0.24641200       0.42275000       0.21773000
    32  C          0.75358800       0.57725000       0.78227000
    33  H          0.22260000       0.49840000       0.26790000
    34  H          0.77740000       0.50160000       0.73210000
    35  C          0.16331000       0.27934000       0.22513000
    36  C          0.83669000       0.72066000       0.77487000
    37  C          0.05321000       0.23874000       0.30403000
    38  C          0.94679000       0.76126000       0.69597000
    39  C         -0.03421100       0.09444000       0.30633000
    40  C          0.03421100       0.90556000       0.69367000
    41  C          0.13731200       0.02155000       0.15023000
    42  C          0.86268800       0.97845000       0.84977000
    43  H          0.17650000       0.94850000       0.09980000
    44  H          0.82350000       0.05150000       0.90020000
    45  C          0.20741100       0.16485000       0.14613000
    46  C          0.79258900       0.83515000       0.85387000
    47  C          0.02761100       0.35484000       0.38883000
    48  C         -0.02761100       0.64516000       0.61117000
    49  O          0.19829000       0.33013000       0.46352000
    50  O          0.80171000       0.66987000       0.53648000
    51  H          0.15115000       0.39760000       0.51640000
    52  H          0.84885000       0.60240000       0.48360000
    53  O          0.86381000       0.46653000       0.38712000
    54  O          0.13619000       0.53347000       0.61288000
