data_QQQFDJ19
_symmetry_space_group_name_H-M    'P1'
_symmetry_Int_Tables_number       1
loop_
_symmetry_equiv_pos_site_id
_symmetry_equiv_pos_as_xyz
1 x,y,z
_cell_length_a                   3.89008
_cell_length_b                   9.370019
_cell_length_c                   29.0606
_cell_angle_alpha                90.0
_cell_angle_beta                 90.643
_cell_angle_gamma                90.0
loop_
_atom_site_label
_atom_site_type_symbol
_atom_site_fract_x
_atom_site_fract_y
_atom_site_fract_z
     1  C          0.12803000       0.19853130       0.09785400
     2  C          0.37197000       0.69853130       0.40214600
     3  C          0.87197000       0.80146870       0.90214600
     4  C          0.62803000       0.30146870       0.59785400
     5  C          0.27253000       0.13493130       0.13778400
     6  C          0.22747000       0.63493130       0.36221600
     7  C          0.72747000       0.86506870       0.86221600
     8  C          0.77253000       0.36506870       0.63778400
     9  C          0.04133000       0.34504130       0.09646400
    10  C          0.45867000       0.84504130       0.40353600
    11  C          0.95867000       0.65495870       0.90353600
    12  C          0.54133000       0.15495870       0.59646400
    13  C          0.11533000       0.43196130       0.13613400
    14  C          0.38467000       0.93196130       0.36386600
    15  C          0.88467000       0.56803870       0.86386600
    16  C          0.61533000       0.06803870       0.63613400
    17  O          0.21503000       0.15757120       0.01842400
    18  O          0.28497000       0.65757120       0.48157600
    19  O          0.78497000       0.84242880       0.98157600
    20  O          0.71503000       0.34242880       0.51842400
    21  C          0.34613000       0.22492140       0.17689400
    22  C          0.15387000       0.72492140       0.32310600
    23  C          0.65387000       0.77507860       0.82310600
    24  C          0.84613000       0.27507860       0.67689400
    25  C          0.49914000       0.16236170       0.21728500
    26  C          0.00086000       0.66236170       0.28271500
    27  C          0.50086000       0.83763830       0.78271500
    28  C         -0.00086000       0.33763830       0.71728500
    29  C          0.87186000       0.41202140       0.05810500
    30  C          0.62814000       0.91202140       0.44189500
    31  C          0.12814000       0.58797860       0.94189500
    32  C          0.37186000       0.08797860       0.55810500
    33  O          0.90787000      -0.00367100       0.05661300
    34  O          0.59213000       0.49632900       0.44338700
    35  O          0.09213000       0.00367100       0.94338700
    36  O          0.40787000       0.50367100       0.55661300
    37  C          0.26964000       0.36980140       0.17472500
    38  C          0.23036000       0.86980140       0.32527500
    39  C          0.73036000       0.63019860       0.82527500
    40  C          0.76964000       0.13019860       0.67472500
    41  C          0.07413000       0.10912130       0.05562400
    42  C          0.42587000       0.60912130       0.44437600
    43  C          0.92587000       0.89087870       0.94437600
    44  C          0.57413000       0.39087870       0.55562400
    45  C          0.36024000      -0.01336140       0.14141500
    46  C          0.13976000       0.48663860       0.35858500
    47  C          0.63976000       0.01336140       0.85858500
    48  C          0.86024000       0.51336140       0.64141500
    49  C          0.79266000       0.55367160       0.05884600
    50  C          0.70734000       0.05367160       0.44115400
    51  C          0.20734000       0.44632840       0.94115400
    52  C          0.29266000       0.94632840       0.55884600
    53  C          0.50484000       0.93291840       0.18069500
    54  C         -0.00484000       0.43291840       0.31930500
    55  C          0.49516000       0.06708160       0.81930500
    56  C          0.00484000       0.56708160       0.68069500
    57  C          0.02904000       0.58059150       0.13501500
    58  C          0.47096000       0.08059150       0.36498500
    59  C         -0.02904000       0.41940850       0.86498500
    60  C          0.52904000       0.91940850       0.63501500
    61  C          0.57564000       0.02214180       0.21918500
    62  C          0.92436000       0.52214180       0.28081500
    63  C          0.42436000       0.97785820       0.78081500
    64  C          0.07564000       0.47785820       0.71918500
    65  C          0.87416000       0.63955150       0.09764600
    66  C          0.62584000       0.13955150       0.40235400
    67  C          0.12584000       0.36044850       0.90235400
    68  C          0.37416000       0.86044850       0.59764600
    69  H          0.81060000       0.35591700       0.03166000
    70  H          0.68940000       0.85591700       0.46834000
    71  H          0.18940000       0.64408300       0.96834000
    72  H          0.31060000       0.14408300       0.53166000
    73  H          0.31540000       0.92228200       0.11556000
    74  H          0.18460000       0.42228200       0.38444000
    75  H          0.68460000       0.07771800       0.88444000
    76  H          0.81540000       0.57771800       0.61556000
    77  H          0.54850000       0.22731900       0.24207000
    78  H          0.95150000       0.72731900       0.25793000
    79  H          0.45150000       0.77268100       0.75793000
    80  H          0.04850000       0.27268100       0.74207000
    81  H          0.32740000       0.43851800       0.20116000
    82  H          0.17260000       0.93851800       0.29884000
    83  H          0.67260000       0.56148200       0.79884000
    84  H          0.82740000       0.06148200       0.70116000
    85  H          0.56550000       0.83280000       0.18167000
    86  H          0.93450000       0.33280000       0.31833000
    87  H          0.43450000       0.16720000       0.81833000
    88  H          0.06550000       0.66720000       0.68167000
    89  H          0.08350000       0.64061900       0.16297000
    90  H          0.41650000       0.14061900       0.33703000
    91  H          0.91650000       0.35938100       0.83703000
    92  H          0.58350000       0.85938100       0.66297000
    93  H          0.66750000       0.59421900       0.03287000
    94  H          0.83250000       0.09421900       0.46713000
    95  H          0.33250000       0.40578100       0.96713000
    96  H          0.16750000       0.90578100       0.53287000
    97  H          0.81550000       0.73520000       0.09717000
    98  H          0.68450000       0.23520000       0.40283000
    99  H          0.18450000       0.26480000       0.90283000
   100  H          0.31550000       0.76480000       0.59717000
   101  H          0.68650000       0.98180000       0.24577000
   102  H          0.81350000       0.48180000       0.25423000
   103  H          0.31350000       0.01820000       0.75423000
   104  H          0.18650000       0.51820000       0.74577000
   105  H          0.88800000       0.91320000       0.02240000
   106  H          0.61200000       0.41320000       0.47760000
   107  H          0.11200000       0.08680000       0.97760000
   108  H          0.38800000       0.58680000       0.52240000
