data_QQQFDJ01
_symmetry_space_group_name_H-M    'P1'
_symmetry_Int_Tables_number       1
loop_
_symmetry_equiv_pos_site_id
_symmetry_equiv_pos_as_xyz
1 x,y,z
_cell_length_a                   3.8973
_cell_length_b                   9.3552
_cell_length_c                   28.9803
_cell_angle_alpha                90.0
_cell_angle_beta                 90.794
_cell_angle_gamma                90.0
loop_
_atom_site_label
_atom_site_type_symbol
_atom_site_fract_x
_atom_site_fract_y
_atom_site_fract_z
     1  O          0.21324000       0.34301000       0.51848400
     2  O          0.28676000       0.84301000       0.98151600
     3  O          0.78676000       0.65699000       0.48151600
     4  O          0.71324000       0.15699000       0.01848400
     5  O          0.90826000       0.50351000       0.55668400
     6  O          0.59174000       0.00351000       0.94331600
     7  O          0.09174000       0.49649000       0.44331600
     8  O          0.40826000      -0.00351000       0.05668400
     9  C          0.36105000       0.51292000       0.64160600
    10  C          0.13895000       0.01292000       0.85839400
    11  C          0.63895000       0.48708000       0.35839400
    12  C          0.86105000      -0.01292000       0.14160600
    13  C          0.50485000       0.56632000       0.68067700
    14  C         -0.00485000       0.06632000       0.81932300
    15  C          0.49515000       0.43368000       0.31932300
    16  C          0.00485000       0.93368000       0.18067700
    17  C          0.57536000       0.47823000       0.71908700
    18  C          0.92464000       0.97823000       0.78091300
    19  C          0.42464000       0.52177000       0.28091300
    20  C          0.07536000       0.02177000       0.21908700
    21  C          0.49875000       0.33792000       0.71734600
    22  C          0.00125000       0.83792000       0.78265400
    23  C          0.50125000       0.66208000       0.28265400
    24  C         -0.00125000       0.16208000       0.21734600
    25  C          0.02786000       0.92028000       0.63513700
    26  C          0.47214000       0.42028000       0.86486300
    27  C         -0.02786000       0.07972000       0.36486300
    28  C          0.52786000       0.57972000       0.13513700
    29  C          0.87464000       0.86148000       0.59770800
    30  C          0.62536000       0.36148000       0.90229200
    31  C          0.12536000       0.13852000       0.40229200
    32  C          0.37464000       0.63852000       0.09770800
    33  C          0.79315000       0.94678000       0.55894700
    34  C          0.70685000       0.44678000       0.94105300
    35  C          0.20685000       0.05322000       0.44105300
    36  C          0.29315000       0.55322000       0.05894700
    37  C          0.87095000       0.08822000       0.55821600
    38  C          0.62905000       0.58822000       0.94178400
    39  C          0.12905000       0.91178000       0.44178400
    40  C          0.37095000       0.41178000       0.05821600
    41  C          0.12714000       0.30182000       0.59804600
    42  C          0.37286000       0.80182000       0.90195400
    43  C          0.87286000       0.69818000       0.40195400
    44  C          0.62714000       0.19818000       0.09804600
    45  C          0.26915000       0.13062000       0.67483600
    46  C          0.23085000       0.63062000       0.82516400
    47  C          0.73085000       0.86938000       0.32516400
    48  C          0.76915000       0.36938000       0.17483600
    49  C          0.27235000       0.36482000       0.63798600
    50  C          0.22765000       0.86482000       0.86201400
    51  C          0.72765000       0.63518000       0.36201400
    52  C          0.77235000       0.13518000       0.13798600
    53  C          0.34595000       0.27532000       0.67704600
    54  C          0.15405000       0.77532000       0.82295400
    55  C          0.65405000       0.72468000       0.32295400
    56  C          0.84595000       0.22468000       0.17704600
    57  C          0.11445000       0.06862000       0.63623600
    58  C          0.38555000       0.56862000       0.86376400
    59  C          0.88555000       0.93138000       0.36376400
    60  C          0.61445000       0.43138000       0.13623600
    61  C          0.04115000       0.15522000       0.59659600
    62  C          0.45885000       0.65522000       0.90340400
    63  C          0.95885000       0.84478000       0.40340400
    64  C          0.54115000       0.34478000       0.09659600
    65  C          0.07425000       0.39042000       0.55569600
    66  C          0.42575000       0.89042000       0.94430400
    67  C          0.92575000       0.60958000       0.44430400
    68  C          0.57425000       0.10958000       0.05569600
    69  H          0.15380000       0.40930000       0.48810000
    70  H          0.34620000       0.90930000       0.01190000
    71  H          0.84620000       0.59070000       0.51190000
    72  H          0.65380000       0.09070000       0.98810000
    73  H          0.31670000       0.57660000       0.61540000
    74  H          0.18330000       0.07660000       0.88460000
    75  H          0.68330000       0.42340000       0.38460000
    76  H          0.81670000       0.92340000       0.11540000
    77  H          0.56130000       0.66820000       0.68230000
    78  H          0.93870000       0.16820000       0.81770000
    79  H          0.43870000       0.33180000       0.31770000
    80  H          0.06130000       0.83180000       0.18230000
    81  H          0.68000000       0.51890000       0.74710000
    82  H          0.82000000       0.01890000       0.75290000
    83  H          0.32000000       0.48110000       0.25290000
    84  H          0.18000000       0.98110000       0.24710000
    85  H          0.54870000       0.27750000       0.74430000
    86  H          0.95130000       0.77750000       0.75570000
    87  H          0.45130000       0.72250000       0.25570000
    88  H          0.04870000       0.22250000       0.24430000
    89  H          0.08050000       0.86030000       0.66200000
    90  H          0.41950000       0.36030000       0.83800000
    91  H          0.91950000       0.13970000       0.33800000
    92  H          0.58050000       0.63970000       0.16200000
    93  H          0.81990000       0.75940000       0.59740000
    94  H          0.68010000       0.25940000       0.90260000
    95  H          0.18010000       0.24060000       0.40260000
    96  H          0.31990000       0.74060000       0.09740000
    97  H          0.67850000       0.90330000       0.53210000
    98  H          0.82150000       0.40330000       0.96790000
    99  H          0.32150000       0.09670000       0.46790000
   100  H          0.17850000       0.59670000       0.03210000
   101  H          0.81010000       0.14520000       0.53090000
   102  H          0.68990000       0.64520000       0.96910000
   103  H          0.18990000       0.85480000       0.46910000
   104  H          0.31010000       0.35480000       0.03090000
   105  H          0.32610000       0.06990000       0.70140000
   106  H          0.17390000       0.56990000       0.79860000
   107  H          0.67390000       0.93010000       0.29860000
   108  H          0.82610000       0.43010000       0.20140000
