data_QUKHIP
_symmetry_space_group_name_H-M    'P1'
_symmetry_Int_Tables_number       1
loop_
_symmetry_equiv_pos_site_id
_symmetry_equiv_pos_as_xyz
1 x,y,z
_cell_length_a                   9.17093
_cell_length_b                   16.11605
_cell_length_c                   14.01485
_cell_angle_alpha                90.0
_cell_angle_beta                 106.42034
_cell_angle_gamma                90.0
loop_
_atom_site_label
_atom_site_type_symbol
_atom_site_fract_x
_atom_site_fract_y
_atom_site_fract_z
     1  F          0.08909700       0.07398400       0.59146500
     2  F          0.41090300       0.57398400       0.90853500
     3  F          0.91090300       0.92601600       0.40853500
     4  F          0.58909700       0.42601600       0.09146500
     5  O          0.70935900       0.85681600       0.61645600
     6  O          0.79064100       0.35681600       0.88354400
     7  O          0.29064100       0.14318400       0.38354400
     8  O          0.20935900       0.64318400       0.11645600
     9  O          0.27747100       0.86515500       0.64975600
    10  O          0.22252900       0.36515500       0.85024400
    11  O          0.72252900       0.13484500       0.35024400
    12  O          0.77747100       0.63484500       0.14975600
    13  O          0.46978110       0.78828500       0.63218700
    14  O          0.03021890       0.28828500       0.86781300
    15  O          0.53021890       0.21171500       0.36781300
    16  O          0.96978110       0.71171500       0.13218700
    17  N          0.51190900       0.08305500       0.63565600
    18  N         -0.01190900       0.58305500       0.86434400
    19  N          0.48809100       0.91694500       0.36434400
    20  N          0.01190900       0.41694500       0.13565600
    21  N          0.95006900       0.22682500       0.58173600
    22  N          0.54993100       0.72682500       0.91826400
    23  N          0.04993100       0.77317500       0.41826400
    24  N          0.45006900       0.27317500       0.08173600
    25  N          0.04945900       0.38175500       0.52144600
    26  N          0.45054100       0.88175500       0.97855400
    27  N          0.95054100       0.61824500       0.47855400
    28  N          0.54945900       0.11824500       0.02144600
    29  C          0.64921120       0.92645400       0.62385700
    30  C          0.85078880       0.42645400       0.87614300
    31  C          0.35078880       0.07354600       0.37614300
    32  C          0.14921120       0.57354600       0.12385700
    33  C          0.49974110       0.93476400       0.63540700
    34  C          0.00025890       0.43476400       0.86459300
    35  C          0.50025890       0.06523600       0.36459300
    36  C         -0.00025890       0.56523600       0.13540700
    37  C          0.43960110       0.01177600       0.64215700
    38  C          0.06039890       0.51177600       0.85784300
    39  C          0.56039890       0.98822400       0.35784300
    40  C          0.93960110       0.48822400       0.14215700
    41  C          0.40427130       0.86104400       0.63966700
    42  C          0.09572870       0.36104400       0.86033300
    43  C          0.59572870       0.13895600       0.36033300
    44  C          0.90427130       0.63895600       0.13966700
    45  C          0.43478110       0.16157600       0.64013700
    46  C          0.06521890       0.66157600       0.85986300
    47  C          0.56521890       0.83842400       0.35986300
    48  C          0.93478110       0.33842400       0.14013700
    49  C          0.36441120       0.17365700       0.72367800
    50  C          0.13558880       0.67365700       0.77632200
    51  C          0.63558880       0.82634300       0.27632200
    52  C          0.86441120       0.32634300       0.22367800
    53  C          0.50393120       0.22201600       0.72211800
    54  C         -0.00393120       0.72201600       0.77788200
    55  C          0.49606880       0.77798400       0.27788200
    56  C          0.00393120       0.27798400       0.22211800
    57  C          0.72760110       0.00385600       0.61833700
    58  C          0.77239890       0.50385600       0.88166300
    59  C          0.27239890      -0.00385600       0.38166300
    60  C          0.22760110       0.49614400       0.11833700
    61  C          0.87562110       0.00321600       0.60771700
    62  C          0.62437890       0.50321600       0.89228300
    63  C          0.12437890      -0.00321600       0.39228300
    64  C          0.37562110       0.49678400       0.10771700
    65  C          0.94362110       0.07602600       0.59655700
    66  C          0.55637890       0.57602600       0.90344300
    67  C          0.05637890       0.92397400       0.40344300
    68  C          0.44362110       0.42397400       0.09655700
    69  C          0.87218110       0.15437600       0.59234700
    70  C          0.62781890       0.65437600       0.90765300
    71  C          0.12781890       0.84562400       0.40765300
    72  C          0.37218110       0.34562400       0.09234700
    73  C          0.72770100       0.15509600       0.60579700
    74  C          0.77229900       0.65509600       0.89420300
    75  C          0.27229900       0.84490400       0.39420300
    76  C          0.22770100       0.34490400       0.10579700
    77  C          0.65618100       0.08107600       0.62066700
    78  C          0.84381900       0.58107600       0.87933300
    79  C          0.34381900       0.91892400       0.37933300
    80  C          0.15618100       0.41892400       0.12066700
    81  C          0.00486110       0.23231600       0.49221700
    82  C          0.49513890       0.73231600       0.00778300
    83  C         -0.00486110       0.76768400       0.50778300
    84  C          0.50486110       0.26768400      -0.00778300
    85  C          0.11852110       0.30220600       0.50283700
    86  C          0.38147890       0.80220600      -0.00283700
    87  C          0.88147890       0.69779400       0.49716300
    88  C          0.61852110       0.19779400       0.00283700
    89  C          0.88030110       0.30507600       0.59883700
    90  C          0.61969890       0.80507600       0.90116300
    91  C          0.11969890       0.69492400       0.40116300
    92  C          0.38030110       0.19492400       0.09883700
    93  C         -0.00588880       0.37511600       0.61147700
    94  C          0.50588880       0.87511600       0.88852300
    95  C          0.00588880       0.62488400       0.38852300
    96  C          0.49411120       0.12488400       0.11147700
    97  H          0.34131600       0.01859000       0.65271100
    98  H          0.15868400       0.51859000       0.84728900
    99  H          0.65868400       0.98141000       0.34728900
   100  H          0.84131600       0.48141000       0.15271100
   101  H          0.38341400       0.18228000       0.57541000
   102  H          0.11658600       0.68228000       0.92459000
   103  H          0.61658600       0.81772000       0.42459000
   104  H          0.88341400       0.31772000       0.07541000
   105  H          0.93161600       0.95321000       0.61001000
   106  H          0.56838400       0.45321000       0.88999000
   107  H          0.06838400       0.04679000       0.38999000
   108  H          0.43161600       0.54679000       0.11001000
   109  H          0.67501400       0.20758000       0.60229000
   110  H          0.82498600       0.70758000       0.89771000
   111  H          0.32498600       0.79242000       0.39771000
   112  H          0.17501400       0.29242000       0.10229000
   113  H          0.96931600       0.39728000       0.46961000
   114  H          0.53068400       0.89728000       0.03039000
   115  H          0.03068400       0.60272000       0.53039000
   116  H          0.46931600       0.10272000       0.96961000
   117  H          0.12011600       0.42529000       0.53341000
   118  H          0.37988400       0.92529000       0.96659000
   119  H          0.87988400       0.57471000       0.46659000
   120  H          0.62011600       0.07471000       0.03341000
   121  H          0.56920000       0.80188800       0.62501500
   122  H          0.93080000       0.30188800       0.87498500
   123  H          0.43080000       0.19811200       0.37498500
   124  H          0.06920000       0.69811200       0.12501500
   125  H          0.27201700       0.20169000       0.70891100
   126  H          0.22798300       0.70169000       0.79108900
   127  H          0.72798300       0.79831000       0.29108900
   128  H          0.77201700       0.29831000       0.20891100
   129  H          0.38051600       0.12939000       0.77191100
   130  H          0.11948400       0.62939000       0.72808900
   131  H          0.61948400       0.87061000       0.22808900
   132  H          0.88051600       0.37061000       0.27191100
   133  H          0.49461500       0.28069000       0.70621000
   134  H          0.00538500       0.78069000       0.79379000
   135  H          0.50538500       0.71931000       0.29379000
   136  H         -0.00538500       0.21931000       0.20621000
   137  H          0.59921500       0.20578000       0.76851000
   138  H          0.90078500       0.70578000       0.73149000
   139  H          0.40078500       0.79422000       0.23149000
   140  H          0.09921500       0.29422000       0.26851000
   141  H          0.05451500       0.18108000       0.48321000
   142  H          0.44548500       0.68108000       0.01679000
   143  H          0.94548500       0.81892000       0.51679000
   144  H          0.55451500       0.31892000       0.98321000
   145  H          0.92111500       0.24198000       0.43461000
   146  H          0.57888500       0.74198000       0.06539000
   147  H          0.07888500       0.75802000       0.56539000
   148  H          0.42111500       0.25802000       0.93461000
   149  H          0.14951400       0.30848000       0.44341000
   150  H          0.35048600       0.80848000       0.05659000
   151  H          0.85048600       0.69152000       0.55659000
   152  H          0.64951400       0.19152000       0.94341000
   153  H          0.20651400       0.29478000       0.55981000
   154  H          0.29348600       0.79478000       0.94019000
   155  H          0.79348600       0.70522000       0.44019000
   156  H          0.70651400       0.20522000       0.05981000
   157  H          0.84981400       0.30038000       0.66091000
   158  H          0.65018600       0.80038000       0.83909000
   159  H          0.15018600       0.69962000       0.33909000
   160  H          0.34981400       0.19962000       0.16091000
   161  H          0.79211500       0.31808000       0.54501000
   162  H          0.70788500       0.81808000       0.95499000
   163  H          0.20788500       0.68192000       0.45499000
   164  H          0.29211500       0.18192000       0.04501000
   165  H          0.94751500       0.42688000       0.61811000
   166  H          0.55248500       0.92688000       0.88189000
   167  H          0.05248500       0.57312000       0.38189000
   168  H          0.44751500       0.07312000       0.11811000
   169  H          0.08221600       0.36508000       0.66741000
   170  H          0.41778400       0.86508000       0.83259000
   171  H          0.91778400       0.63492000       0.33259000
   172  H          0.58221600       0.13492000       0.16741000
   173  O          0.61092800       0.55640400       0.39578600
   174  O          0.88907200       0.05640400       0.10421400
   175  O          0.38907200       0.44359600       0.60421400
   176  O          0.11092800       0.94359600       0.89578600
   177  O          0.80270800       0.47042500       0.40493600
   178  O          0.69729200       0.97042500       0.09506400
   179  O          0.19729200       0.52957500       0.59506400
   180  O          0.30270800       0.02957500       0.90493600
   181  O          0.16916800       0.44531500       0.36115500
   182  O          0.33083200       0.94531500       0.13884500
   183  O          0.83083200       0.55468500       0.63884500
   184  O          0.66916800       0.05468500       0.86115500
   185  O          0.33906800       0.54616400       0.37987600
   186  O          0.16093200       0.04616400       0.12012400
   187  O          0.66093200       0.45383600       0.62012400
   188  O          0.83906800       0.95383600       0.87987600
   189  C          0.66378110       0.48434600       0.38950700
   190  C          0.83621890       0.98434600       0.11049300
   191  C          0.33621890       0.51565400       0.61049300
   192  C          0.16378110       0.01565400       0.88950700
   193  C          0.55984110       0.41078600       0.36393700
   194  C          0.94015890       0.91078600       0.13606300
   195  C          0.44015890       0.58921400       0.63606300
   196  C          0.05984110       0.08921400       0.86393700
   197  C          0.41197110       0.40475600       0.35613700
   198  C          0.08802890       0.90475600       0.14386300
   199  C          0.58802890       0.59524400       0.64386300
   200  C          0.91197110       0.09524400       0.85613700
   201  C          0.29870110       0.46830600       0.36660700
   202  C          0.20129890       0.96830600       0.13339300
   203  C          0.70129890       0.53169400       0.63339300
   204  C          0.79870110       0.03169400       0.86660700
   205  H          0.61441600       0.36189000       0.35411000
   206  H          0.88558400       0.86189000       0.14589000
   207  H          0.38558400       0.63811000       0.64589000
   208  H          0.11441600       0.13811000       0.85411000
   209  H          0.36531500       0.35098000       0.34191000
   210  H          0.13468500       0.85098000       0.15809000
   211  H          0.63468500       0.64902000       0.65809000
   212  H          0.86531500       0.14902000       0.84191000
   213  H          0.45720000       0.55351200       0.38581500
   214  H          0.04280000       0.05351200       0.11418500
   215  H          0.54280000       0.44648800       0.61418500
   216  H          0.95720000       0.94648800       0.88581500
