data_QUKHIP03
_symmetry_space_group_name_H-M    'P1'
_symmetry_Int_Tables_number       1
loop_
_symmetry_equiv_pos_site_id
_symmetry_equiv_pos_as_xyz
1 x,y,z
_cell_length_a                   13.94425
_cell_length_b                   10.40334
_cell_length_c                   15.06746
_cell_angle_alpha                90.0
_cell_angle_beta                 108.7741
_cell_angle_gamma                90.0
loop_
_atom_site_label
_atom_site_type_symbol
_atom_site_fract_x
_atom_site_fract_y
_atom_site_fract_z
     1  F          0.82947500       0.77828600       0.91043500
     2  F          0.17052500       0.27828600       0.58956500
     3  F          0.17052500       0.22171400       0.08956500
     4  F          0.82947500       0.72171400       0.41043500
     5  N          0.97790600       0.30420800       0.85470600
     6  N          0.02209400       0.80420800       0.64529400
     7  N          0.02209400       0.69579200       0.14529400
     8  N          0.97790600       0.19579200       0.35470600
     9  N          0.69647600       0.57166800       0.87148600
    10  N          0.30352400       0.07166800       0.62851400
    11  N          0.30352400       0.42833200       0.12851400
    12  N          0.69647600       0.92833200       0.37148600
    13  N          0.48064600       0.58193800       0.82705600
    14  N          0.51935400       0.08193800       0.67294400
    15  N          0.51935400       0.41806200       0.17294400
    16  N          0.48064600       0.91806200       0.32705600
    17  O          0.16648500       0.61883700       0.90557600
    18  O          0.83351500       0.11883700       0.59442400
    19  O          0.83351500       0.38116300       0.09442400
    20  O          0.16648500       0.88116300       0.40557600
    21  O          0.27622700       0.26413900       0.86167700
    22  O          0.72377300       0.76413900       0.63832300
    23  O          0.72377300       0.73586100       0.13832300
    24  O          0.27622700       0.23586100       0.36167700
    25  O          0.30507600       0.47390900       0.88378600
    26  O          0.69492400       0.97390900       0.61621400
    27  O          0.69492400       0.52609100       0.11621400
    28  O          0.30507600       0.02609100       0.38378600
    29  C          0.10868700       0.52235100       0.88936700
    30  C          0.89131300       0.02235100       0.61063300
    31  C          0.89131300       0.47764900       0.11063300
    32  C          0.10868700       0.97764900       0.38936700
    33  C          0.14109700       0.39585100       0.87349700
    34  C          0.85890300       0.89585100       0.62650300
    35  C          0.85890300       0.60414900       0.12650300
    36  C          0.14109700       0.10414900       0.37349700
    37  C          0.07487700       0.29463100       0.85669700
    38  C          0.92512300       0.79463100       0.64330300
    39  C          0.92512300       0.70536900       0.14330300
    40  C          0.07487700       0.20536900       0.35669700
    41  C          0.24599800       0.37013110       0.87254800
    42  C          0.75400200       0.87013110       0.62745200
    43  C          0.75400200       0.62986890       0.12745200
    44  C          0.24599800       0.12986890       0.37254800
    45  C          0.91179800       0.19219100       0.82878800
    46  C          0.08820200       0.69219100       0.67121200
    47  C          0.08820200       0.80780900       0.17121200
    48  C          0.91179800       0.30780900       0.32878800
    49  C          0.95064100       0.06597120       0.87409100
    50  C          0.04935900       0.56597120       0.62590900
    51  C          0.04935900       0.93402880       0.12590900
    52  C          0.95064100       0.43402880       0.37409100
    53  C          0.86657100       0.13505120       0.89739900
    54  C          0.13342900       0.63505120       0.60260100
    55  C          0.13342900       0.86494880       0.10260100
    56  C          0.86657100       0.36494880       0.39739900
    57  C          0.00287700       0.53267900       0.88397700
    58  C         -0.00287700       0.03267900       0.61602300
    59  C         -0.00287700       0.46732100       0.11602300
    60  C          0.00287700       0.96732100       0.38397700
    61  C          0.96245700       0.65279100       0.89610700
    62  C          0.03754300       0.15279100       0.60389300
    63  C          0.03754300       0.34720900       0.10389300
    64  C          0.96245700       0.84720900       0.39610700
    65  C          0.86379700       0.66252900       0.89226700
    66  C          0.13620300       0.16252900       0.60773300
    67  C          0.13620300       0.33747100       0.10773300
    68  C          0.86379700       0.83747100       0.39226700
    69  C          0.79650700       0.55598900       0.87290700
    70  C          0.20349300       0.05598900       0.62709300
    71  C          0.20349300       0.44401100       0.12709300
    72  C          0.79650700       0.94401100       0.37290700
    73  C          0.83630700       0.43764900       0.85984700
    74  C          0.16369300       0.93764900       0.64015300
    75  C          0.16369300       0.56235100       0.14015300
    76  C          0.83630700       0.06235100       0.35984700
    77  C          0.93876700       0.42483900       0.86673600
    78  C          0.06123300       0.92483900       0.63326400
    79  C          0.06123300       0.57516100       0.13326400
    80  C          0.93876700       0.07516100       0.36673600
    81  C          0.63557700       0.66636100       0.80342700
    82  C          0.36442300       0.16636100       0.69657300
    83  C          0.36442300       0.33363900       0.19657300
    84  C          0.63557700       0.83363900       0.30342700
    85  C          0.54134800       0.69986100       0.82720800
    86  C          0.45865200       0.19986100       0.67279200
    87  C          0.45865200       0.30013900       0.17279200
    88  C          0.54134800       0.80013900       0.32720800
    89  C          0.63831700       0.45344900       0.86900700
    90  C          0.36168300       0.95344900       0.63099300
    91  C          0.36168300       0.54655100       0.13099300
    92  C          0.63831700       0.04655100       0.36900700
    93  C          0.54237700       0.48298100       0.89220700
    94  C          0.45762300       0.98298100       0.60779300
    95  C          0.45762300       0.51701900       0.10779300
    96  C          0.54237700       0.01701900       0.39220700
    97  H          0.09611000       0.20871300       0.84529000
    98  H          0.90389000       0.70871300       0.65471000
    99  H          0.90389000       0.79128700       0.15471000
   100  H          0.09611000       0.29128700       0.34529000
   101  H          0.86831100       0.19501400       0.76471000
   102  H          0.13168900       0.69501400       0.73529000
   103  H          0.13168900       0.80498600       0.23529000
   104  H          0.86831100       0.30498600       0.26471000
   105  H          0.00421100       0.72951400       0.90861000
   106  H         -0.00421100       0.22951400       0.59139000
   107  H         -0.00421100       0.27048600       0.09139000
   108  H          0.00421100       0.77048600       0.40861000
   109  H          0.79331000       0.36461300       0.84319000
   110  H          0.20669000       0.86461300       0.65681000
   111  H          0.20669000       0.63538700       0.15681000
   112  H          0.79331000       0.13538700       0.34319000
   113  H          0.42731200       0.60461400       0.84301000
   114  H          0.57268800       0.10461400       0.65699000
   115  H          0.57268800       0.39538600       0.15699000
   116  H          0.42731200       0.89538600       0.34301000
   117  H          0.45381200       0.54841500       0.76751200
   118  H          0.54618800       0.04841500       0.73248800
   119  H          0.54618800       0.45158500       0.23248800
   120  H          0.45381200       0.95158500       0.26751200
   121  H          0.26661700       0.54520000       0.89181500
   122  H          0.73338300       0.04520000       0.60818500
   123  H          0.73338300       0.45480000       0.10818500
   124  H          0.26661700       0.95480000       0.39181500
   125  H          0.93651200      -0.01261700       0.83421200
   126  H          0.06348800       0.48738300       0.66578800
   127  H          0.06348800       0.01261700       0.16578800
   128  H          0.93651200       0.51261700       0.33421200
   129  H          0.01741400       0.06691700       0.92391300
   130  H          0.98258600       0.56691700       0.57608700
   131  H          0.98258600       0.93308300       0.07608700
   132  H          0.01741400       0.43308300       0.42391300
   133  H          0.80021200       0.10151500       0.87161100
   134  H          0.19978800       0.60151500       0.62838900
   135  H          0.19978800       0.89848500       0.12838900
   136  H          0.80021200       0.39848500       0.37161100
   137  H          0.88351200       0.17531500       0.95941100
   138  H          0.11648800       0.67531500       0.54058900
   139  H          0.11648800       0.82468500       0.04058900
   140  H          0.88351200       0.32468500       0.45941100
   141  H          0.61681000       0.62891300       0.74011000
   142  H          0.38319000       0.12891300       0.75989000
   143  H          0.38319000       0.37108700       0.25989000
   144  H          0.61681000       0.87108700       0.24011000
   145  H          0.67641000       0.74231400       0.80451000
   146  H          0.32359000       0.24231400       0.69549000
   147  H          0.32359000       0.25768600       0.19549000
   148  H          0.67641000       0.75768600       0.30451000
   149  H          0.55871000       0.73651400       0.88841000
   150  H          0.44129000       0.23651400       0.61159000
   151  H          0.44129000       0.26348600       0.11159000
   152  H          0.55871000       0.76348600       0.38841000
   153  H          0.49941100       0.75681400       0.78111000
   154  H          0.50058900       0.25681400       0.71889000
   155  H          0.50058900       0.24318600       0.21889000
   156  H          0.49941100       0.74318600       0.28111000
   157  H          0.62081000       0.41181200       0.80729000
   158  H          0.37919000       0.91181200       0.69271000
   159  H          0.37919000       0.58818800       0.19271000
   160  H          0.62081000       0.08818800       0.30729000
   161  H          0.67921000       0.39431300       0.91671000
   162  H          0.32079000       0.89431300       0.58329000
   163  H          0.32079000       0.60568700       0.08329000
   164  H          0.67921000       0.10568700       0.41671000
   165  H          0.50061000       0.40581300       0.88679000
   166  H          0.49939000       0.90581300       0.61321000
   167  H          0.49939000       0.59418700       0.11321000
   168  H          0.50061000       0.09418700       0.38679000
   169  H          0.55841100       0.51931400       0.95601000
   170  H          0.44158900       0.01931400       0.54399000
   171  H          0.44158900       0.48068600       0.04399000
   172  H          0.55841100       0.98068600       0.45601000
   173  O          0.42798700       0.65685800       0.60340600
   174  O          0.57201300       0.15685800       0.89659400
   175  O          0.57201300       0.34314200       0.39659400
   176  O          0.42798700       0.84314200       0.10340600
   177  O          0.38951700       0.47168800       0.65452600
   178  O          0.61048300       0.97168800       0.84547400
   179  O          0.61048300       0.52831200       0.34547400
   180  O          0.38951700       0.02831200       0.15452600
   181  O          0.31434600       0.73010800       0.30652500
   182  O          0.68565400       0.23010800       0.19347500
   183  O          0.68565400       0.26989200       0.69347500
   184  O          0.31434600       0.76989200       0.80652500
   185  O          0.39802600       0.76473800       0.45573500
   186  O          0.60197400       0.26473800       0.04426500
   187  O          0.60197400       0.23526200       0.54426500
   188  O          0.39802600       0.73526200       0.95573500
   189  C          0.38739800       0.54516100       0.58942800
   190  C          0.61260200       0.04516100       0.91057200
   191  C          0.61260200       0.45483900       0.41057200
   192  C          0.38739800       0.95483900       0.08942800
   193  C          0.33367100       0.49938110       0.49165800
   194  C          0.66632900      -0.00061890       0.00834200
   195  C          0.66632900       0.50061890       0.50834200
   196  C          0.33367100       0.00061890      -0.00834200
   197  C          0.31497100       0.56030120       0.40969800
   198  C          0.68502900       0.06030120       0.09030200
   199  C          0.68502900       0.43969880       0.59030200
   200  C          0.31497100       0.93969880       0.90969800
   201  C          0.34299800       0.69289100       0.38833700
   202  C          0.65700200       0.19289100       0.11166300
   203  C          0.65700200       0.30710900       0.61166300
   204  C          0.34299800       0.80710900       0.88833700
   205  H          0.30771400       0.41241700       0.48951200
   206  H          0.69228600       0.91241700       0.01048800
   207  H          0.69228600       0.58758300       0.51048800
   208  H          0.30771400       0.08758300       0.98951200
   209  H          0.27821200       0.51631500       0.35431100
   210  H          0.72178800       0.01631500       0.14568900
   211  H          0.72178800       0.48368500       0.64568900
   212  H          0.27821200       0.98368500       0.85431100
   213  H          0.41321900       0.71020000       0.52611800
   214  H          0.58678100       0.21020000       0.97388200
   215  H          0.58678100       0.28980000       0.47388200
   216  H          0.41321900       0.78980000       0.02611800
