data_QUKHIP01
_symmetry_space_group_name_H-M    'P1'
_symmetry_Int_Tables_number       1
loop_
_symmetry_equiv_pos_site_id
_symmetry_equiv_pos_as_xyz
1 x,y,z
_cell_length_a                   13.9564
_cell_length_b                   10.4594
_cell_length_c                   15.1845
_cell_angle_alpha                90.0
_cell_angle_beta                 108.7656
_cell_angle_gamma                90.0
loop_
_atom_site_label
_atom_site_type_symbol
_atom_site_fract_x
_atom_site_fract_y
_atom_site_fract_z
     1  C          0.42541100       0.70397150       0.14347900
     2  C          0.57458900       0.20397150       0.35652100
     3  C          0.57458900       0.29602850       0.85652100
     4  C          0.42541100       0.79602850       0.64347900
     5  H          0.40190000       0.78380000       0.15410000
     6  H          0.59810000       0.28380000       0.34590000
     7  H          0.59810000       0.21620000       0.84590000
     8  H          0.40190000       0.71620000       0.65410000
     9  C          0.35945100       0.60340150       0.12676900
    10  C          0.64054900       0.10340150       0.37323100
    11  C          0.64054900       0.39659850       0.87323100
    12  C          0.35945100       0.89659850       0.62676900
    13  C          0.39203900       0.47823140       0.11114900
    14  C          0.60796100       0.97823140       0.38885100
    15  C          0.60796100       0.52176860       0.88885100
    16  C          0.39203900       0.02176860       0.61114900
    17  C          0.49749900       0.46793130       0.11670800
    18  C          0.50250100       0.96793130       0.38329200
    19  C          0.50250100       0.53206870       0.88329200
    20  C          0.49749900       0.03206870       0.61670800
    21  C          0.53786100       0.34854130       0.10474900
    22  C          0.46213900       0.84854130       0.39525100
    23  C          0.46213900       0.65145870       0.89525100
    24  C          0.53786100       0.15145870       0.60474900
    25  H          0.49710000       0.27600000       0.09400000
    26  H          0.50290000       0.77600000       0.40600000
    27  H          0.50290000       0.72400000       0.90600000
    28  H          0.49710000       0.22400000       0.59400000
    29  C          0.63622100       0.33885130       0.10881100
    30  C          0.36377900       0.83885130       0.39118900
    31  C          0.36377900       0.66114870       0.89118900
    32  C          0.63622100       0.16114870       0.60881100
    33  C          0.70340900       0.44440130       0.12821800
    34  C          0.29659100       0.94440130       0.37178200
    35  C          0.29659100       0.55559870       0.87178200
    36  C          0.70340900       0.05559870       0.62821800
    37  C          0.66362900       0.56165130       0.14088800
    38  C          0.33637100       0.06165130       0.35911200
    39  C          0.33637100       0.43834870       0.85911200
    40  C          0.66362900       0.93834870       0.64088800
    41  H          0.70550000       0.63310000       0.15440000
    42  H          0.29450000       0.13310000       0.34560000
    43  H          0.29450000       0.36690000       0.84560000
    44  H          0.70550000       0.86690000       0.65440000
    45  C          0.56142900       0.57471130       0.13375800
    46  C          0.43857100       0.07471130       0.36624200
    47  C          0.43857100       0.42528870       0.86624200
    48  C          0.56142900       0.92528870       0.63375800
    49  C          0.58809110       0.80637140       0.17056100
    50  C          0.41190890       0.30637140       0.32943900
    51  C          0.41190890       0.19362860       0.82943900
    52  C          0.58809110       0.69362860       0.67056100
    53  H          0.63130000       0.81050000       0.23570000
    54  H          0.36870000       0.31050000       0.26430000
    55  H          0.36870000       0.18950000       0.76430000
    56  H          0.63130000       0.68950000       0.73570000
    57  C          0.63167150       0.86295180       0.10240140
    58  C          0.36832850       0.36295180       0.39759860
    59  C          0.36832850       0.13704820       0.89759860
    60  C          0.63167150       0.63704820       0.60240140
    61  H          0.61460000       0.82350000       0.04150000
    62  H          0.38540000       0.32350000       0.45850000
    63  H          0.38540000       0.17650000       0.95850000
    64  H          0.61460000       0.67650000       0.54150000
    65  H          0.69960000       0.89790000       0.12580000
    66  H          0.30040000       0.39790000       0.37420000
    67  H          0.30040000       0.10210000       0.87420000
    68  H          0.69960000       0.60210000       0.62580000
    69  C          0.54931150       0.93130180       0.12684150
    70  C          0.45068850       0.43130180       0.37315850
    71  C          0.45068850       0.06869820       0.87315850
    72  C          0.54931150       0.56869820       0.62684150
    73  H          0.56750000       0.00740000       0.16510000
    74  H          0.43250000       0.50740000       0.33490000
    75  H          0.43250000      -0.00740000       0.83490000
    76  H          0.56750000       0.49260000       0.66510000
    77  H          0.48250000       0.93310000       0.08070000
    78  H          0.51750000       0.43310000       0.41930000
    79  H          0.51750000       0.06690000       0.91930000
    80  H          0.48250000       0.56690000       0.58070000
    81  C          0.25457110       0.62908170       0.12741110
    82  C          0.74542890       0.12908170       0.37258890
    83  C          0.74542890       0.37091830       0.87258890
    84  C          0.25457110       0.87091830       0.62741110
    85  C          0.86372100       0.33388140       0.19697100
    86  C          0.13627900       0.83388140       0.30302900
    87  C          0.13627900       0.66611860       0.80302900
    88  C          0.86372100       0.16611860       0.69697100
    89  H          0.82370000       0.25760000       0.19530000
    90  H          0.17630000       0.75760000       0.30470000
    91  H          0.17630000       0.74240000       0.80470000
    92  H          0.82370000       0.24240000       0.69530000
    93  H          0.88270000       0.36900000       0.25940000
    94  H          0.11730000       0.86900000       0.24060000
    95  H          0.11730000       0.63100000       0.74060000
    96  H          0.88270000       0.13100000       0.75940000
    97  C          0.95734100       0.29985140       0.17335110
    98  C          0.04265900       0.79985140       0.32664890
    99  C          0.04265900       0.70014860       0.82664890
   100  C          0.95734100       0.20014860       0.67335110
   101  H         -0.00250000       0.23920000       0.21860000
   102  H          0.00250000       0.73920000       0.28140000
   103  H          0.00250000       0.76080000       0.78140000
   104  H         -0.00250000       0.26080000       0.71860000
   105  H          0.93820000       0.25960000       0.11260000
   106  H          0.06180000       0.75960000       0.38740000
   107  H          0.06180000       0.74040000       0.88740000
   108  H          0.93820000       0.24040000       0.61260000
   109  C          0.95727100       0.51492140       0.10897900
   110  C          0.04272900       0.01492140       0.39102100
   111  C          0.04272900       0.48507860       0.89102100
   112  C          0.95727100       0.98507860       0.60897900
   113  H          0.93930000       0.48450000       0.04540000
   114  H          0.06070000       0.98450000       0.45460000
   115  H          0.06070000       0.51550000       0.95460000
   116  H          0.93930000       0.01550000       0.54540000
   117  H         -0.00290000       0.59220000       0.11400000
   118  H          0.00290000       0.09220000       0.38600000
   119  H          0.00290000       0.40780000       0.88600000
   120  H         -0.00290000       0.90780000       0.61400000
   121  C          0.86194100       0.54488130       0.13200100
   122  C          0.13805900       0.04488130       0.36799900
   123  C          0.13805900       0.45511870       0.86799900
   124  C          0.86194100       0.95511870       0.63200100
   125  H          0.87970000       0.58350000       0.19330000
   126  H          0.12030000       0.08350000       0.30670000
   127  H          0.12030000       0.41650000       0.80670000
   128  H          0.87970000       0.91650000       0.69330000
   129  H          0.82120000       0.60560000       0.08720000
   130  H          0.17880000       0.10560000       0.41280000
   131  H          0.17880000       0.39440000       0.91280000
   132  H          0.82120000       0.89440000       0.58720000
   133  N          0.52244800       0.69460110       0.14555800
   134  N          0.47755200       0.19460110       0.35444200
   135  N          0.47755200       0.30539890       0.85444200
   136  N          0.52244800       0.80539890       0.64555800
   137  N          0.80343800       0.42816110       0.13010700
   138  N          0.19656200       0.92816110       0.36989300
   139  N          0.19656200       0.57183890       0.86989300
   140  N          0.80343800       0.07183890       0.63010700
   141  N          0.01862800       0.41604120       0.17304900
   142  N          0.98137200       0.91604120       0.32695100
   143  N          0.98137200       0.58395880       0.82695100
   144  N          0.01862800       0.08395880       0.67304900
   145  H          0.07351800       0.39120000       0.15611400
   146  H          0.92648200       0.89120000       0.34388600
   147  H          0.92648200       0.60880000       0.84388600
   148  H          0.07351800       0.10880000       0.65611400
   149  H          0.04701500       0.45161900       0.23211400
   150  H          0.95298500       0.95161900       0.26788600
   151  H          0.95298500       0.54838100       0.76788600
   152  H          0.04701500       0.04838100       0.73211400
   153  O          0.22431100       0.73433140       0.13770110
   154  O          0.77568900       0.23433140       0.36229890
   155  O          0.77568900       0.26566860       0.86229890
   156  O          0.22431100       0.76566860       0.63770110
   157  O          0.19571800       0.52629140       0.11620900
   158  O          0.80428200       0.02629140       0.38379100
   159  O          0.80428200       0.47370860       0.88379100
   160  O          0.19571800       0.97370860       0.61620900
   161  H          0.23520000       0.45230000       0.11320000
   162  H          0.76480000       0.95230000       0.38680000
   163  H          0.76480000       0.54770000       0.88680000
   164  H          0.23520000       0.04770000       0.61320000
   165  O          0.33433700       0.38227110       0.09509800
   166  O          0.66566300       0.88227110       0.40490200
   167  O          0.66566300       0.61772890       0.90490200
   168  O          0.33433700       0.11772890       0.59509800
   169  F          0.67006700       0.22377900       0.09064800
   170  F          0.32993300       0.72377900       0.40935200
   171  F          0.32993300       0.77622100       0.90935200
   172  F          0.67006700       0.27622100       0.59064800
   173  C          0.84463110       0.69072150       0.39068100
   174  C          0.15536890       0.19072150       0.10931900
   175  C          0.15536890       0.30927850       0.60931900
   176  C          0.84463110       0.80927850       0.89068100
   177  C          0.81616150       0.56073180       0.41281110
   178  C          0.18383850       0.06073180       0.08718890
   179  C          0.18383850       0.43926820       0.58718890
   180  C          0.81616150       0.93926820       0.91281110
   181  H          0.77980000       0.51280000       0.36130000
   182  H          0.22020000       0.01280000       0.13870000
   183  H          0.22020000       0.48720000       0.63870000
   184  H          0.77980000      -0.01280000       0.86130000
   185  C          0.83402160       0.50133170       0.49404120
   186  C          0.16597840       0.00133170       0.00595880
   187  C          0.16597840       0.49866830       0.50595880
   188  C          0.83402160      -0.00133170      -0.00595880
   189  H          0.80890000       0.41840000       0.49010000
   190  H          0.19110000       0.91840000       0.00990000
   191  H          0.19110000       0.58160000       0.50990000
   192  H          0.80890000       0.08160000       0.99010000
   193  C          0.88788120       0.54675150       0.59015110
   194  C          0.11211880       0.04675150       0.90984890
   195  C          0.11211880       0.45324850       0.40984890
   196  C          0.88788120       0.95324850       0.09015110
   197  O          0.89960100       0.76240120       0.45640800
   198  O          0.10039900       0.26240120       0.04359200
   199  O          0.10039900       0.23759880       0.54359200
   200  O          0.89960100       0.73759880       0.95640800
   201  H          0.91030000       0.72640000       0.50731500
   202  H          0.08970000       0.22640000      -0.00731500
   203  H          0.08970000       0.27360000       0.49268500
   204  H          0.91030000       0.77360000       0.00731500
   205  O          0.81670800       0.72729130       0.30984700
   206  O          0.18329200       0.22729130       0.19015300
   207  O          0.18329200       0.27270870       0.69015300
   208  O          0.81670800       0.77270870       0.80984700
   209  O          0.92891110       0.65675120       0.60334800
   210  O          0.07108890       0.15675120       0.89665200
   211  O          0.07108890       0.34324880       0.39665200
   212  O          0.92891110       0.84324880       0.10334800
   213  O          0.88970120       0.47528120       0.65499800
   214  O          0.11029880       0.97528120       0.84500200
   215  O          0.11029880       0.52471880       0.34500200
   216  O          0.88970120       0.02471880       0.15499800
