data_QUKHIP02
_symmetry_space_group_name_H-M    'P1'
_symmetry_Int_Tables_number       1
loop_
_symmetry_equiv_pos_site_id
_symmetry_equiv_pos_as_xyz
1 x,y,z
_cell_length_a                   7.06574
_cell_length_b                   9.20525
_cell_length_c                   15.68189
_cell_angle_alpha                88.70048
_cell_angle_beta                 86.49838
_cell_angle_gamma                75.55228
loop_
_atom_site_label
_atom_site_type_symbol
_atom_site_fract_x
_atom_site_fract_y
_atom_site_fract_z
     1  F          0.87254120       0.51508800       0.08135500
     2  F          0.12745880       0.48491200       0.91864500
     3  O          0.85618150       0.94778110       0.87815400
     4  O          0.14381850       0.05221890       0.12184600
     5  O          0.66709170       0.40646120       0.90064300
     6  O          0.33290830       0.59353880       0.09935700
     7  O          0.79685160       0.20994130       0.81760400
     8  O          0.20314840       0.79005870       0.18239600
     9  N          0.60994160       0.12839110       0.10813700
    10  N          0.39005840       0.87160890       0.89186300
    11  N          0.75140160       0.62913110       0.24006700
    12  N          0.24859840       0.37086890       0.75993300
    13  N          0.84148180       0.51479140       0.40790700
    14  N          0.15851820       0.48520860       0.59209300
    15  C          0.78107190       0.00400150       0.94916200
    16  C          0.21892810      -0.00400150       0.05083800
    17  C          0.70993190       0.16223150       0.96236200
    18  C          0.29006810       0.83776850       0.03763800
    19  C          0.62611190       0.21652150       0.03987800
    20  C          0.37388810       0.78347850       0.96012200
    21  C          0.72072000       0.27221160       0.89213100
    22  C          0.27928000       0.72778840       0.10786900
    23  C          0.50972000       0.19377140       0.18750800
    24  C          0.49028000       0.80622860       0.81249200
    25  C          0.54252000       0.33802150       0.21697900
    26  C          0.45748000       0.66197850       0.78302100
    27  C          0.62803000       0.19426160       0.26368900
    28  C          0.37197000       0.80573840       0.73631100
    29  C          0.76284180       0.90963140       0.02322800
    30  C          0.23715820       0.09036860       0.97677200
    31  C          0.82792190       0.75235150       0.01744800
    32  C          0.17207810       0.24764850       0.98255200
    33  C          0.81581190       0.66633140       0.08787800
    34  C          0.18418810       0.33366860       0.91212200
    35  C          0.74425180       0.72657140       0.16894800
    36  C          0.25574820       0.27342860       0.83105200
    37  C          0.66931190       0.88032140       0.17348800
    38  C          0.33068810       0.11967860       0.82651200
    39  C          0.67906180       0.97246140       0.10155800
    40  C          0.32093820       0.02753860       0.89844200
    41  C          0.95412000       0.55501160       0.26068900
    42  C          0.04588000       0.44498840       0.73931100
    43  C          0.95772000       0.44059160       0.33151900
    44  C          0.04228000       0.55940840       0.66848100
    45  C          0.63372000       0.69667150       0.31589800
    46  C          0.36628000       0.30332850       0.68410200
    47  C          0.63632000       0.58203160       0.38679900
    48  C          0.36368000       0.41796840       0.61320100
    49  H          0.57320000       0.32061800       0.04899000
    50  H          0.42680000       0.67938200       0.95101000
    51  H          0.38020000       0.17711600       0.19609000
    52  H          0.61980000       0.82288400       0.80391000
    53  H          0.87420000       0.70621700       0.96529000
    54  H          0.12580000       0.29378300       0.03471000
    55  H          0.61720000       0.92481600       0.22521000
    56  H          0.38280000       0.07518400       0.77479000
    57  H          0.89730000       0.58821900       0.42431000
    58  H          0.10270000       0.41178100       0.57569000
    59  H          0.84620000       0.44491900       0.45421100
    60  H          0.15380000       0.55508100       0.54578900
    61  H          0.83130000       0.10120000       0.82648700
    62  H          0.16870000       0.89880000       0.17351300
    63  H          0.42930000       0.40791900       0.24211100
    64  H          0.57070000       0.59208100       0.75788900
    65  H          0.63620000       0.37771700       0.18321000
    66  H          0.36380000       0.62228300       0.81679000
    67  H          0.57220000       0.17811700       0.31871100
    68  H          0.42780000       0.82188300       0.68128900
    69  H          0.76530000       0.15301800       0.25371000
    70  H          0.23470000       0.84698200       0.74629000
    71  H          0.02020000       0.62951700       0.27889000
    72  H          0.97980000       0.37048300       0.72111000
    73  H          0.02220000       0.50601700       0.21171000
    74  H          0.97780000       0.49398300       0.78829000
    75  H          0.09020000       0.39691700       0.34891000
    76  H          0.90980000       0.60308300       0.65109000
    77  H          0.90120000       0.36351700       0.31609000
    78  H          0.09880000       0.63648300       0.68391000
    79  H          0.49820000       0.73741700       0.29961000
    80  H          0.50180000       0.26258300       0.70039000
    81  H          0.68520000       0.77721800       0.33861000
    82  H          0.31480000       0.22278200       0.66139000
    83  H          0.58020000       0.49911700       0.37011000
    84  H          0.41980000       0.50088300       0.62989000
    85  H          0.56620000       0.63071700       0.43741000
    86  H          0.43380000       0.36928300       0.56259000
    87  O          0.78110150       0.19898110       0.46239600
    88  O          0.21889850       0.80101890       0.53760400
    89  O          0.85707140       0.34428100       0.55794600
    90  O          0.14292860       0.65571900       0.44205400
    91  O          0.71793160       0.76203890       0.54715700
    92  O          0.28206840       0.23796110       0.45284300
    93  O          0.72152150       0.94917890       0.45693600
    94  O          0.27847850       0.05082110       0.54306400
    95  C          0.81997180       0.22403140       0.53740800
    96  C          0.18002820       0.77596860       0.46259200
    97  C          0.82152000       0.10958150       0.60700900
    98  C          0.17848000       0.89041850       0.39299100
    99  C          0.78332000       0.97536850       0.60501900
   100  C          0.21668000       0.02463150       0.39498100
   101  C          0.73652000       0.88901850       0.53322900
   102  C          0.26348000       0.11098150       0.46677100
   103  H          0.85420000       0.14041700       0.66091000
   104  H          0.14580000       0.85958300       0.33909000
   105  H          0.79220000       0.91838300       0.65781000
   106  H          0.20780000       0.08161700       0.34219000
   107  H          0.74430000       0.05520000       0.45641300
   108  H          0.25570000       0.94480000       0.54358700
