data_QULLUF
_symmetry_space_group_name_H-M    'P1'
_symmetry_Int_Tables_number       1
loop_
_symmetry_equiv_pos_site_id
_symmetry_equiv_pos_as_xyz
1 x,y,z
_cell_length_a                   8.048516
_cell_length_b                   9.113918
_cell_length_c                   22.6075
_cell_angle_alpha                94.133
_cell_angle_beta                 91.523
_cell_angle_gamma                113.943
loop_
_atom_site_label
_atom_site_type_symbol
_atom_site_fract_x
_atom_site_fract_y
_atom_site_fract_z
     1  O         -0.00438000       0.80295190       0.74111700
     2  O          0.00438000       0.19704810       0.25888300
     3  O          0.43912000       0.94642000       0.87567700
     4  O          0.56088000       0.05358000       0.12432300
     5  O          0.29632000       0.69122000       0.80326800
     6  O          0.70368000       0.30878000       0.19673200
     7  O          0.74152000       0.08292190       0.88458800
     8  O          0.25848000       0.91707810       0.11541200
     9  C          0.62093000       0.85492000       0.81487900
    10  C          0.37907000       0.14508000       0.18512100
    11  C          0.79563000       0.88163000       0.79772900
    12  C          0.20437000       0.11837000       0.20227100
    13  H          0.89510000       0.97230000       0.81410000
    14  H          0.10490000       0.02770000       0.18590000
    15  C          0.49793000       0.61123000       0.74834100
    16  C          0.50207000       0.38877000       0.25165900
    17  H          0.39880000       0.52050000       0.73170000
    18  H          0.60120000       0.47950000       0.26830000
    19  C          0.67123000       0.63743000       0.73248100
    20  C          0.32877000       0.36257000       0.26751900
    21  H          0.68830000       0.56350000       0.70550000
    22  H          0.31170000       0.43650000       0.29450000
    23  C          0.82163000       0.77423000       0.75652100
    24  C          0.17837000       0.22577000       0.24347900
    25  C          0.59343000       0.96643000       0.86075100
    26  C          0.40657000       0.03357000       0.13924900
    27  C          0.47073000       0.72013000       0.78928100
    28  C          0.52927000       0.27987000       0.21071900
    29  H         -0.00460000       0.73440000       0.70721500
    30  H          0.00460000       0.26560000       0.29278500
    31  H          0.30840000       0.77540000       0.83401500
    32  H          0.69160000       0.22460000       0.16598500
    33  H          0.72460000       0.15050000       0.91431500
    34  H          0.27540000       0.84950000       0.08568500
    35  O          0.72942000       0.60952190       0.47990700
    36  O          0.27058000       0.39047810       0.52009300
    37  O         -0.02188000       0.61472000       0.64456700
    38  O          0.02188000       0.38528000       0.35543300
    39  C          0.82573000       0.47853000       0.55270100
    40  C          0.17427000       0.52147000       0.44729900
    41  N          0.85953000       0.74893000       0.58901110
    42  N          0.14047000       0.25107000       0.41098890
    43  C          0.84233000       0.34033000       0.56887100
    44  C          0.15767000       0.65967000       0.43112900
    45  H          0.89360000       0.34180000       0.60640000
    46  H          0.10640000       0.65820000       0.39360000
    47  C          0.89443000       0.62113000       0.59838100
    48  C          0.10557000       0.37887000       0.40161900
    49  C          0.74753000       0.47413000       0.49567100
    50  C          0.25247000       0.52587000       0.50432900
    51  C          0.69223000       0.33463000       0.45719110
    52  C          0.30777000       0.66537000       0.54280890
    53  H          0.64280000       0.33230000       0.41930000
    54  H          0.35720000       0.66770000       0.58070000
    55  C          0.78463000       0.20033000       0.53067110
    56  C          0.21537000       0.79967000       0.46932890
    57  H          0.79590000       0.10900000       0.54260000
    58  H          0.20410000       0.89100000       0.45740000
    59  C          0.71023000       0.19863000       0.47485110
    60  C          0.28977000       0.80137000       0.52514890
    61  H          0.67180000       0.10580000       0.44880000
    62  H          0.32820000       0.89420000       0.55120000
    63  C          0.66953000       0.61333000       0.41987110
    64  C          0.33047000       0.38667000       0.58012890
    65  H          0.54700000       0.53130000       0.41090000
    66  H          0.45300000       0.46870000       0.58910000
    67  H          0.74980000       0.59310000       0.39230000
    68  H          0.25020000       0.40690000       0.60770000
    69  C          0.67334000       0.77793000       0.41461140
    70  C          0.32666000       0.22207000       0.58538860
    71  H          0.59240000       0.79590000       0.44180000
    72  H          0.40760000       0.20410000       0.55820000
    73  H          0.63510000       0.78510000       0.37470000
    74  H          0.36490000       0.21490000       0.62530000
    75  H          0.79490000       0.85790000       0.42400000
    76  H          0.20510000       0.14210000       0.57600000
    77  H          0.80640000       0.75430000       0.55551300
    78  H          0.19360000       0.24570000       0.44448700
    79  H          0.89840000       0.83540000       0.61541500
    80  H          0.10160000       0.16460000       0.38458500
    81  O          0.90772000       0.05982000       0.65842700
    82  O          0.09228000       0.94018000       0.34157300
    83  O          0.09102000       0.33332000       0.71653800
    84  O          0.90898000       0.66668000       0.28346200
    85  O          0.29182000       0.09482000       0.74951800
    86  O          0.70818000       0.90518000       0.25048200
    87  C          0.77043000       0.20472000       0.72079100
    88  C          0.22957000       0.79528000       0.27920900
    89  O          0.95352000       0.45188190       0.77582700
    90  O          0.04648000       0.54811810       0.22417300
    91  C          0.75883000       0.07283000       0.68180100
    92  C          0.24117000       0.92717000       0.31819900
    93  C          0.61123000       0.20763000       0.74341100
    94  C          0.38877000       0.79237000       0.25658900
    95  H          0.61860000       0.29400000       0.76950000
    96  H          0.38140000       0.70600000       0.23050000
    97  C          0.95123000       0.33443000       0.73719100
    98  C          0.04877000       0.66557000       0.26280900
    99  C          0.43323000       0.95373000       0.68816100
   100  C          0.56677000       0.04627000       0.31183900
   101  H          0.32070000       0.87020000       0.67690000
   102  H          0.67930000       0.12980000       0.32310000
   103  C          0.58933000       0.94913000       0.66619100
   104  C          0.41067000       0.05087000       0.33380900
   105  H          0.58100000       0.86170000       0.64050000
   106  H          0.41900000       0.13830000       0.35950000
   107  C          0.44323000       0.08333000       0.72733100
   108  C          0.55677000       0.91667000       0.27266900
   109  H          0.19240000      -0.00360000       0.74491400
   110  H          0.80760000       0.00360000       0.25508600
   111  H          0.00850000       0.15550000       0.67481600
   112  H         -0.00850000       0.84450000       0.32518400
   113  H          0.07250000       0.52850000       0.78251800
   114  H          0.92750000       0.47150000       0.21748200
   115  C          0.58983000       0.26883000      -0.00577900
   116  C          0.41017000       0.73117000       0.00577900
   117  C          0.68283000       0.65303000       0.12952110
   118  C          0.31717000       0.34697000       0.87047890
   119  H          0.70580000       0.73850000       0.15820000
   120  H          0.29420000       0.26150000       0.84180000
   121  C          0.82633000       0.63763000       0.10131110
   122  C          0.17367000       0.36237000       0.89868890
   123  H          0.94540000       0.71110000       0.11130000
   124  H          0.05460000       0.28890000       0.88870000
   125  C         -0.02273000       0.17213000       0.06107120
   126  C          0.02273000       0.82787000       0.93892880
   127  H         -0.01470000       0.07710000       0.07410000
   128  H          0.01470000       0.92290000       0.92590000
   129  H          0.96850000       0.16450000       0.01840000
   130  H          0.03150000       0.83550000       0.98160000
   131  H          0.87130000       0.18160000       0.07610000
   132  H          0.12870000       0.81840000       0.92390000
   133  H          0.33540000       0.14340000       0.00191400
   134  H          0.66460000       0.85660000      -0.00191400
   135  H          0.41440000       0.07630000       0.95101300
   136  H          0.58560000       0.92370000       0.04898700
   137  O          0.29772000       0.29748190       0.05957700
   138  O          0.70228000       0.70251810       0.94042300
   139  O          0.72552000       0.27856190       0.96591700
   140  O          0.27448000       0.72143810       0.03408300
   141  N          0.42843000       0.14662000       0.98245100
   142  N          0.57157000       0.85338000       0.01754900
   143  C          0.61373000       0.39723000       0.04310100
   144  C          0.38627000       0.60277000       0.95689900
   145  C          0.46993000       0.41313000       0.07318100
   146  C          0.53007000       0.58687000       0.92681900
   147  C          0.14563000       0.31893000       0.08415110
   148  C          0.85437000       0.68107000       0.91584890
   149  H          0.13890000       0.41610000       0.07170000
   150  H          0.86110000       0.58390000       0.92830000
   151  H          0.15720000       0.32740000       0.12720000
   152  H          0.84280000       0.67260000       0.87280000
   153  C          0.50543000       0.54223000       0.11551100
   154  C          0.49457000       0.45777000       0.88448900
   155  H          0.40980000       0.55430000       0.13440000
   156  H          0.59020000       0.44570000       0.86560000
   157  C          0.79003000       0.51103000       0.05787100
   158  C          0.20997000       0.48897000       0.94212900
   159  H          0.88600000       0.50220000       0.03820000
   160  H          0.11400000       0.49780000       0.96180000
