data_QULLUF01
_symmetry_space_group_name_H-M    'P1'
_symmetry_Int_Tables_number       1
loop_
_symmetry_equiv_pos_site_id
_symmetry_equiv_pos_as_xyz
1 x,y,z
_cell_length_a                   7.721715
_cell_length_b                   12.6683
_cell_length_c                   15.7493
_cell_angle_alpha                90.0
_cell_angle_beta                 102.443
_cell_angle_gamma                90.0
loop_
_atom_site_label
_atom_site_type_symbol
_atom_site_fract_x
_atom_site_fract_y
_atom_site_fract_z
     1  O          0.75055000       0.51983000       0.40442000
     2  O          0.24945000       0.01983000       0.09558000
     3  O          0.24945000       0.48017000       0.59558000
     4  O          0.75055000       0.98017000       0.90442000
     5  O          0.76665000       0.56213000       0.24642000
     6  O          0.23335000       0.06213000       0.25358000
     7  O          0.23335000       0.43787000       0.75358000
     8  O          0.76665000       0.93787000       0.74642000
     9  O          0.87525000       0.62973000       0.51192000
    10  O          0.12475000       0.12973000       0.98808000
    11  O          0.12475000       0.37027000       0.48808000
    12  O          0.87525000       0.87027000       0.01192000
    13  O          0.12715000       0.92593000       0.37532000
    14  O          0.87285000       0.42593000       0.12468000
    15  O          0.87285000       0.07407000       0.62468000
    16  O          0.12715000       0.57407000       0.87532000
    17  C          0.89726000       0.67313000       0.36973000
    18  C          0.10274000       0.17313000       0.13027000
    19  C          0.10274000       0.32687000       0.63027000
    20  C          0.89726000       0.82687000       0.86973000
    21  C         -0.00824000       0.81594000       0.25313000
    22  C          0.00824000       0.31594000       0.24687000
    23  C          0.00824000       0.18406000       0.74687000
    24  C         -0.00824000       0.68406000       0.75313000
    25  H          0.02220000       0.86400000       0.21410000
    26  H          0.97780000       0.36400000       0.28590000
    27  H          0.97780000       0.13600000       0.78590000
    28  H          0.02220000       0.63600000       0.71410000
    29  C          0.03836000       0.83604000       0.34223000
    30  C          0.96164000       0.33604000       0.15777000
    31  C          0.96164000       0.16396000       0.65777000
    32  C          0.03836000       0.66396000       0.84223000
    33  C         -0.00864000       0.76574000       0.39943000
    34  C          0.00864000       0.26574000       0.10057000
    35  C          0.00864000       0.23426000       0.60057000
    36  C         -0.00864000       0.73426000       0.89943000
    37  H          0.02220000       0.77940000       0.45880000
    38  H          0.97780000       0.27940000       0.04120000
    39  H          0.97780000       0.22060000       0.54120000
    40  H          0.02220000       0.72060000       0.95880000
    41  C          0.85426000       0.65254000       0.28033000
    42  C          0.14574000       0.15254000       0.21967000
    43  C          0.14574000       0.34746000       0.71967000
    44  C          0.85426000       0.84746000       0.78033000
    45  C          0.83646000       0.60054000       0.42953000
    46  C          0.16354000       0.10054000       0.07047000
    47  C          0.16354000       0.39946000       0.57047000
    48  C          0.83646000       0.89946000       0.92953000
    49  C          0.90056000       0.72494000       0.22223000
    50  C          0.09944000       0.22494000       0.27777000
    51  C          0.09944000       0.27506000       0.77777000
    52  C          0.90056000       0.77506000       0.72223000
    53  H          0.87000000       0.71200000       0.16270000
    54  H          0.13000000       0.21200000       0.33730000
    55  H          0.13000000       0.28800000       0.83730000
    56  H          0.87000000       0.78800000       0.66270000
    57  H          0.83290000       0.56760000       0.54650000
    58  H          0.16710000       0.06760000       0.95350000
    59  H          0.16710000       0.43240000       0.45350000
    60  H          0.83290000       0.93240000       0.04650000
    61  H          0.17312000       0.96480000       0.34870000
    62  H          0.82688000       0.46480000       0.15130000
    63  H          0.82688000       0.03520000       0.65130000
    64  H          0.17312000       0.53520000       0.84870000
    65  H          0.74990000       0.52360000       0.29450000
    66  H          0.25010000       0.02360000       0.20550000
    67  H          0.25010000       0.47640000       0.70550000
    68  H          0.74990000       0.97640000       0.79450000
    69  O          0.50165000       0.23283000       0.61122000
    70  O          0.49835000       0.73283000       0.88878000
    71  O          0.49835000       0.76717000       0.38878000
    72  O          0.50165000       0.26717000       0.11122000
    73  O          0.76356000       0.51843000       0.62242000
    74  O          0.23644000       0.01843000       0.87758000
    75  O          0.23644000       0.48157000       0.37758000
    76  O          0.76356000       0.98157000       0.12242000
    77  N          0.61826000       0.39383000       0.53423000
    78  N          0.38174000       0.89383000       0.96577000
    79  N          0.38174000       0.60617000       0.46577000
    80  N          0.61826000       0.10617000       0.03423000
    81  C          0.68236000       0.43234000       0.61303000
    82  C          0.31764000       0.93234000       0.88697000
    83  C          0.31764000       0.56766000       0.38697000
    84  C          0.68236000       0.06766000       0.11303000
    85  C          0.57666000       0.27514000       0.69083000
    86  C          0.42334000       0.77514000       0.80917000
    87  C          0.42334000       0.72486000       0.30917000
    88  C          0.57666000       0.22486000       0.19083000
    89  C          0.73637000       0.41854000       0.77163000
    90  C          0.26363000       0.91854000       0.72837000
    91  C          0.26363000       0.58146000       0.22837000
    92  C          0.73637000       0.08146000       0.27163000
    93  H          0.79080000       0.48410000       0.77290000
    94  H          0.20920000       0.98410000       0.72710000
    95  H          0.20920000       0.51590000       0.22710000
    96  H          0.79080000       0.01590000       0.27290000
    97  C          0.66016000       0.37344000       0.69133000
    98  C          0.33984000       0.87344000       0.80867000
    99  C          0.33984000       0.62656000       0.30867000
   100  C          0.66016000       0.12656000       0.19133000
   101  C          0.42387000       0.12934000       0.60634000
   102  C          0.57613000       0.62934000       0.89366000
   103  C          0.57613000       0.87066000       0.39366000
   104  C          0.42387000       0.37066000       0.10634000
   105  H          0.32940000       0.12670000       0.63810000
   106  H          0.67060000       0.62670000       0.86190000
   107  H          0.67060000       0.87330000       0.36190000
   108  H          0.32940000       0.37330000       0.13810000
   109  H          0.51240000       0.07670000       0.63020000
   110  H          0.48760000       0.57670000       0.86980000
   111  H          0.48760000       0.92330000       0.36980000
   112  H          0.51240000       0.42330000       0.13020000
   113  C          0.73317000       0.36854000       0.84953000
   114  C          0.26683000       0.86854000       0.65047000
   115  C          0.26683000       0.63146000       0.15047000
   116  C          0.73317000       0.13146000       0.34953000
   117  H          0.78550000       0.39940000       0.90230000
   118  H          0.21450000       0.89940000       0.59770000
   119  H          0.21450000       0.60060000       0.09770000
   120  H          0.78550000       0.10060000       0.40230000
   121  C          0.64988000       0.27094000       0.84673000
   122  C          0.35012000       0.77094000       0.65327000
   123  C          0.35012000       0.72906000       0.15327000
   124  C          0.64988000       0.22906000       0.34673000
   125  H          0.64680000       0.23670000       0.89860000
   126  H          0.35320000       0.73670000       0.60140000
   127  H          0.35320000       0.76330000       0.10140000
   128  H          0.64680000       0.26330000       0.39860000
   129  C          0.57137000       0.22334000       0.76913000
   130  C          0.42863000       0.72334000       0.73087000
   131  C          0.42863000       0.77666000       0.23087000
   132  C          0.57137000       0.27666000       0.26913000
   133  H          0.51590000       0.15810000       0.76870000
   134  H          0.48410000       0.65810000       0.73130000
   135  H          0.48410000       0.84190000       0.23130000
   136  H          0.51590000       0.34190000       0.26870000
   137  C          0.35118000       0.11014000       0.50974000
   138  C          0.64882000       0.61014000       0.99026000
   139  C          0.64882000       0.88986000       0.49026000
   140  C          0.35118000       0.38986000       0.00974000
   141  H          0.26580000       0.16370000       0.48710000
   142  H          0.73420000       0.66370000       0.01290000
   143  H          0.73420000       0.83630000       0.51290000
   144  H          0.26580000       0.33630000       0.98710000
   145  H          0.29520000       0.04210000       0.50170000
   146  H          0.70480000       0.54210000      -0.00170000
   147  H          0.70480000       0.95790000       0.49830000
   148  H          0.29520000       0.45790000       0.00170000
   149  H          0.44650000       0.11240000       0.47950000
   150  H          0.55350000       0.61240000       0.02050000
   151  H          0.55350000       0.88760000       0.52050000
   152  H          0.44650000       0.38760000       0.97950000
   153  H          0.64780000       0.42150000       0.49540000
   154  H          0.35220000       0.92150000       0.00460000
   155  H          0.35220000       0.57850000       0.50460000
   156  H          0.64780000       0.07850000      -0.00460000
   157  H          0.55680000       0.32150000       0.53040000
   158  H          0.44320000       0.82150000       0.96960000
   159  H          0.44320000       0.67850000       0.46960000
   160  H          0.55680000       0.17850000       0.03040000
