data_QULLUF02
_symmetry_space_group_name_H-M    'P1'
_symmetry_Int_Tables_number       1
loop_
_symmetry_equiv_pos_site_id
_symmetry_equiv_pos_as_xyz
1 x,y,z
_cell_length_a                   7.128314
_cell_length_b                   16.2423
_cell_length_c                   12.9043
_cell_angle_alpha                90.0
_cell_angle_beta                 96.253
_cell_angle_gamma                90.0
loop_
_atom_site_label
_atom_site_type_symbol
_atom_site_fract_x
_atom_site_fract_y
_atom_site_fract_z
     1  O          0.04145180       0.70347700       0.66365900
     2  O          0.45854820       0.20347700       0.83634100
     3  O          0.95854820       0.29652300       0.33634100
     4  O          0.54145180       0.79652300       0.16365900
     5  O          0.15736170       0.95221700       0.72081900
     6  O          0.34263830       0.45221700       0.77918100
     7  O          0.84263830       0.04778300       0.27918100
     8  O          0.65736170       0.54778300       0.22081900
     9  C          0.08192000       0.81826100       0.78020120
    10  C          0.41808000       0.31826100       0.71979880
    11  C          0.91808000       0.18173900       0.21979880
    12  C          0.58192000       0.68173900       0.28020120
    13  C          0.12232000       0.90210100       0.80186120
    14  C          0.37768000       0.40210100       0.69813880
    15  C          0.87768000       0.09789900       0.19813880
    16  C          0.62232000       0.59789900       0.30186120
    17  N          0.11413000       0.82468900       0.59439120
    18  N          0.38587000       0.32468900       0.90560880
    19  N          0.88587000       0.17531100       0.40560880
    20  N          0.61413000       0.67531100       0.09439120
    21  C          0.07752000       0.77909100       0.67496130
    22  C          0.42248000       0.27909100       0.82503870
    23  C          0.92248000       0.22090900       0.32503870
    24  C          0.57752000       0.72090900       0.17496130
    25  C          0.04113000       0.79769110       0.96320130
    26  C          0.45887000       0.29769110       0.53679870
    27  C          0.95887000       0.20230890       0.03679870
    28  C          0.54113000       0.70230890       0.46320130
    29  H          0.01130000       0.76330000       0.01660000
    30  H          0.48870000       0.26330000       0.48340000
    31  H         -0.01130000       0.23670000       0.98340000
    32  H          0.51130000       0.73670000       0.51660000
    33  C          0.16352000       0.03997100       0.73644140
    34  C          0.33648000       0.53997100       0.76355860
    35  C          0.83648000       0.96002900       0.26355860
    36  C          0.66352000       0.46002900       0.23644140
    37  H          0.27340000       0.05500000       0.78360000
    38  H          0.22660000       0.55500000       0.71640000
    39  H          0.72660000       0.94500000       0.21640000
    40  H          0.77340000       0.44500000       0.28360000
    41  H          0.05130000       0.05850000       0.76600000
    42  H          0.44870000       0.55850000       0.73400000
    43  H          0.94870000       0.94150000       0.23400000
    44  H          0.55130000       0.44150000       0.26600000
    45  C          0.04042000       0.76788100       0.86241130
    46  C          0.45958000       0.26788100       0.63758870
    47  C          0.95958000       0.23211900       0.13758870
    48  C          0.54042000       0.73211900       0.36241130
    49  H          0.01140000       0.71280000       0.84920000
    50  H          0.48860000       0.21280000       0.65080000
    51  H         -0.01140000       0.28720000       0.15080000
    52  H          0.51140000       0.78720000       0.34920000
    53  C          0.12752000       0.93162100       0.90363130
    54  C          0.37248000       0.43162100       0.59636870
    55  C          0.87248000       0.06837900       0.09636870
    56  C          0.62752000       0.56837900       0.40363130
    57  H          0.15830000       0.98640000       0.91820000
    58  H          0.34170000       0.48640000       0.58180000
    59  H          0.84170000       0.01360000       0.08180000
    60  H          0.65830000       0.51360000       0.41820000
    61  C          0.17343000       0.07839110       0.63127150
    62  C          0.32657000       0.57839110       0.86872850
    63  C          0.82657000       0.92160890       0.36872850
    64  C          0.67343000       0.42160890       0.13127150
    65  H          0.28600000       0.06020000       0.60350000
    66  H          0.21400000       0.56020000       0.89650000
    67  H          0.71400000       0.93980000       0.39650000
    68  H          0.78600000       0.43980000       0.10350000
    69  H          0.17570000       0.13720000       0.63800000
    70  H          0.32430000       0.63720000       0.86200000
    71  H          0.82430000       0.86280000       0.36200000
    72  H          0.67570000       0.36280000       0.13800000
    73  H          0.06500000       0.06220000       0.58510000
    74  H          0.43500000       0.56220000       0.91490000
    75  H          0.93500000       0.93780000       0.41490000
    76  H          0.56500000       0.43780000       0.08510000
    77  C          0.08682000       0.87936110       0.98307130
    78  C          0.41318000       0.37936110       0.51692870
    79  C          0.91318000       0.12063890       0.01692870
    80  C          0.58682000       0.62063890       0.48307130
    81  H          0.09030000       0.89950000       0.05070000
    82  H          0.40970000       0.39950000       0.44930000
    83  H          0.90970000       0.10050000       0.94930000
    84  H          0.59030000       0.60050000       0.55070000
    85  H          0.10030000       0.80141400       0.53220000
    86  H          0.39970000       0.30141400       0.96780000
    87  H          0.89970000       0.19858600       0.46780000
    88  H          0.60030000       0.69858600       0.03220000
    89  H          0.14430000       0.88071300       0.60331600
    90  H          0.35570000       0.38071300       0.89668400
    91  H          0.85570000       0.11928700       0.39668400
    92  H          0.64430000       0.61928700       0.10331600
    93  O          0.05343180       0.73071700       0.40589900
    94  O          0.44656820       0.23071700       0.09410100
    95  O          0.94656820       0.26928300       0.59410100
    96  O          0.55343180       0.76928300       0.90589900
    97  O          0.08825180       0.61483700       0.49966900
    98  O          0.41174820       0.11483700       0.00033100
    99  O          0.91174820       0.38516300       0.50033100
   100  O          0.58825180       0.88516300      -0.00033100
   101  O          0.09022000       0.72895700       0.20872100
   102  O          0.40978000       0.22895700       0.29127900
   103  O          0.90978000       0.27104300       0.79127900
   104  O          0.59022000       0.77104300       0.70872100
   105  O          0.20493190       0.39285700       0.23786100
   106  O          0.29506810       0.89285700       0.26213900
   107  O          0.79506810       0.60714300       0.76213900
   108  O          0.70493190       0.10714300       0.73786100
   109  C          0.10772000       0.60630900       0.31757120
   110  C          0.39228000       0.10630900       0.18242880
   111  C          0.89228000       0.39369100       0.68242880
   112  C          0.60772000       0.89369100       0.81757120
   113  C          0.13522000       0.52060100       0.32429130
   114  C          0.36478000       0.02060100       0.17570870
   115  C          0.86478000       0.47939900       0.67570870
   116  C          0.63522000       0.97939900       0.82429130
   117  H          0.13180000       0.49390000       0.38780000
   118  H          0.36820000      -0.00610000       0.11220000
   119  H          0.86820000       0.50610000       0.61220000
   120  H          0.63180000       0.00610000       0.88780000
   121  C          0.17282000       0.51656100       0.14166130
   122  C          0.32718000       0.01656100       0.35833870
   123  C          0.82718000       0.48343900       0.85833870
   124  C          0.67282000       0.98343900       0.64166130
   125  H          0.19450000       0.48650000       0.08280000
   126  H          0.30550000       0.98650000       0.41720000
   127  H          0.80550000       0.51350000       0.91720000
   128  H          0.69450000       0.01350000       0.58280000
   129  C          0.07962000       0.65559100       0.41071120
   130  C          0.42038000       0.15559100       0.08928880
   131  C          0.92038000       0.34440900       0.58928880
   132  C          0.57962000       0.84440900       0.91071120
   133  C          0.11282000       0.64659100       0.22133130
   134  C          0.38718000       0.14659100       0.27866870
   135  C          0.88718000       0.35340900       0.77866870
   136  C          0.61282000       0.85340900       0.72133130
   137  C          0.14633000       0.60054110       0.13386130
   138  C          0.35367000       0.10054110       0.36613870
   139  C          0.85367000       0.39945890       0.86613870
   140  C          0.64633000       0.89945890       0.63386130
   141  H          0.15090000       0.62660000       0.07000000
   142  H          0.34910000       0.12660000       0.43000000
   143  H          0.84910000       0.37340000       0.93000000
   144  H          0.65090000       0.87340000       0.57000000
   145  C          0.16732000       0.47592100       0.23663130
   146  C          0.33268000       0.97592100       0.26336870
   147  C          0.83268000       0.52407900       0.76336870
   148  C          0.66732000       0.02407900       0.73663130
   149  H          0.07240000       0.65451700       0.55620000
   150  H          0.42760000       0.15451700       0.94380000
   151  H          0.92760000       0.34548300       0.44380000
   152  H          0.57240000       0.84548300       0.05620000
   153  H          0.13440000       0.36711800       0.27820000
   154  H          0.36560000       0.86711800       0.22180000
   155  H          0.86560000       0.63288200       0.72180000
   156  H          0.63440000       0.13288200       0.77820000
   157  H          0.07950000       0.75120000       0.27730000
   158  H          0.42050000       0.25120000       0.22270000
   159  H          0.92050000       0.24880000       0.72270000
   160  H          0.57950000       0.74880000       0.77730000
