data_QUZREJ02
_symmetry_space_group_name_H-M    'P1'
_symmetry_Int_Tables_number       1
loop_
_symmetry_equiv_pos_site_id
_symmetry_equiv_pos_as_xyz
1 x,y,z
_cell_length_a                   8.66364
_cell_length_b                   11.94526
_cell_length_c                   14.33057
_cell_angle_alpha                100.5272
_cell_angle_beta                 90.9172
_cell_angle_gamma                95.6402
loop_
_atom_site_label
_atom_site_type_symbol
_atom_site_fract_x
_atom_site_fract_y
_atom_site_fract_z
     1  O          0.48602000       0.62570150       0.85443870
     2  O          0.51398000       0.37429850       0.14556130
     3  O          0.44602000       0.46303150       0.71030880
     4  O          0.55398000       0.53696850       0.28969120
     5  O          0.67268000       0.25839180       0.41307140
     6  O          0.32732000       0.74160820       0.58692860
     7  O          0.73337000       0.42857180       0.49526140
     8  O          0.26663000       0.57142820       0.50473860
     9  N          0.74077000       0.35582000       0.42386170
    10  N          0.25923000       0.64418000       0.57613830
    11  N          0.29863000       0.66312000       0.17925160
    12  N          0.70137000       0.33688000       0.82074840
    13  C          0.39293000       0.53252000       0.86858820
    14  C          0.60707000       0.46748000       0.13141180
    15  C          0.12813000       0.47032000       0.12847180
    16  C          0.87187000       0.52968000       0.87152820
    17  C          0.13653000       0.40462000       0.04218180
    18  C          0.86347000       0.59538000       0.95781820
    19  H          0.07510000       0.33490000       0.03410000
    20  H          0.92490000       0.66510000       0.96590000
    21  C          0.02463000       0.44052000       0.20422180
    22  C          0.97537000       0.55948000       0.79577820
    23  C          0.31973000       0.52292000       0.95164820
    24  C          0.68027000       0.47708000       0.04835180
    25  H          0.33350000       0.58300000       0.00330000
    26  H          0.66650000       0.41700000      -0.00330000
    27  C          0.03963000       0.50622000       0.29543180
    28  C          0.96037000       0.49378000       0.70456820
    29  H          0.11430000       0.56890000       0.30830000
    30  H          0.88570000       0.43110000       0.69170000
    31  C          0.83777000       0.38512000       0.34728190
    32  C          0.16223000       0.61488000       0.65271810
    33  C          0.37163000       0.44262000       0.78888820
    34  C          0.62837000       0.55738000       0.21111180
    35  C          0.22343000       0.42212000       0.95906820
    36  C          0.77657000       0.57788000       0.04093180
    37  C          0.22343000       0.57792000       0.15502180
    38  C          0.77657000       0.42208000       0.84497820
    39  C          0.27893000       0.34332000       0.79620810
    40  C          0.72107000       0.65668000       0.20379190
    41  H          0.26550000       0.28290000       0.74470000
    42  H          0.73450000       0.71710000       0.25530000
    43  C          0.90957000       0.34752000       0.18602180
    44  C          0.09043000       0.65248000       0.81397820
    45  H          0.89520000       0.30460000       0.12490000
    46  H          0.10480000       0.69540000       0.87510000
    47  C          0.81707000       0.31862000       0.25765190
    48  C          0.18293000       0.68138000       0.74234810
    49  H          0.74250000       0.25570000       0.24560000
    50  H          0.25750000       0.74430000       0.75440000
    51  C          0.94537000       0.47992000       0.36732190
    52  C          0.05463000       0.52008000       0.63267810
    53  H          0.95460000       0.52520000       0.42770000
    54  H          0.04540000       0.47480000       0.57230000
    55  C          0.20653000       0.33442000       0.88031810
    56  C          0.79347000       0.66558000       0.11968190
    57  H          0.14440000       0.26740000       0.88420000
    58  H          0.85560000       0.73260000       0.11580000
    59  C          0.49743000       0.72552000       0.92741810
    60  C          0.50257000       0.27448000       0.07258190
    61  H          0.39560000       0.74840000       0.94060000
    62  H          0.60440000       0.25160000       0.05940000
    63  H          0.56040000       0.78640000       0.90670000
    64  H          0.43960000       0.21360000       0.09330000
    65  H          0.54380000       0.70880000       0.98390000
    66  H          0.45620000       0.29120000       0.01610000
    67  C          0.42484000       0.37542000       0.62702810
    68  C          0.57516000       0.62458000       0.37297190
    69  H          0.46330000       0.30690000       0.63990000
    70  H          0.53670000       0.69310000       0.36010000
    71  H          0.48050000       0.40060000       0.57600000
    72  H          0.51950000       0.59940000       0.42400000
    73  H          0.31630000       0.36010000       0.60940000
    74  H          0.68370000       0.63990000       0.39060000
    75  O          0.37612000       0.20646150       0.27899130
    76  O          0.62388000       0.79353850       0.72100870
    77  O          0.50282000       0.02938160       0.19937130
    78  O          0.49718000       0.97061840       0.80062870
    79  O          0.85698000       0.90073830       0.96373140
    80  O          0.14302000       0.09926170       0.03626860
    81  O          0.77017000       0.06689190       0.98424140
    82  O          0.22983000       0.93310810       0.01575860
    83  N          0.84077000      -0.00742000       0.93867160
    84  N          0.15923000       0.00742000       0.06132840
    85  N          0.00423000       0.24432000       0.52995170
    86  N         -0.00423000       0.75568000       0.47004830
    87  C          0.36873000       0.11822000       0.32796180
    88  C          0.63127000       0.88178000       0.67203820
    89  C          0.36793000       0.92908000       0.41517180
    90  C          0.63207000       0.07092000       0.58482820
    91  H          0.36920000       0.86610000       0.44470000
    92  H          0.63080000       0.13390000       0.55530000
    93  C          0.29393000       0.02182000       0.45750180
    94  C          0.70607000       0.97818000       0.54249820
    95  C          0.29573000       0.11782000       0.41222190
    96  C          0.70427000       0.88218000       0.58777810
    97  H          0.24710000       0.18110000       0.43980000
    98  H          0.75290000       0.81890000       0.56020000
    99  C          0.05373000       0.17082000       0.55745180
   100  C          0.94627000       0.82918000       0.44254820
   101  C          0.91137000       0.01312000       0.85052180
   102  C          0.08863000      -0.01312000       0.14947820
   103  C          0.88267000       0.11112000       0.81702180
   104  C          0.11733000       0.88888000       0.18297820
   105  H          0.82030000       0.16280000       0.85000000
   106  H          0.17970000       0.83720000       0.15000000
   107  C          0.04203000       0.05402000       0.68275180
   108  C          0.95797000       0.94598000       0.31724820
   109  C          0.94867000       0.13032000       0.73362190
   110  C          0.05133000       0.86968000       0.26637810
   111  H          0.93040000       0.19600000       0.71080000
   112  H          0.06960000       0.80400000       0.28920000
   113  C          0.44043000       0.92838000       0.32938190
   114  C          0.55957000       0.07162000       0.67061810
   115  H          0.48930000       0.86520000       0.30190000
   116  H          0.51070000       0.13480000       0.69810000
   117  C          0.44003000       0.02212000       0.28462180
   118  C          0.55997000       0.97788000       0.71537820
   119  C          0.21883000       0.01432000       0.54707190
   120  C          0.78117000       0.98568000       0.45292810
   121  H          0.24980000       0.95680000       0.57690000
   122  H          0.75020000       0.04320000       0.42310000
   123  C          0.11193000       0.07642000       0.59433190
   124  C          0.88807000       0.92358000       0.40566810
   125  C          0.06703000       0.95518000       0.71872000
   126  C          0.93297000       0.04482000       0.28128000
   127  H          0.12820000       0.90240000       0.68590000
   128  H          0.87180000       0.09760000       0.31410000
   129  C          0.00174000       0.93568000       0.80201190
   130  C         -0.00174000       0.06432000       0.19798810
   131  H          0.01890000       0.87000000       0.82530000
   132  H          0.98110000       0.13000000       0.17470000
   133  C          0.56664000       0.93048000       0.14952000
   134  C          0.43336000       0.06952000       0.85048000
   135  H          0.65250000       0.91410000       0.18620000
   136  H          0.34750000       0.08590000       0.81380000
   137  H          0.60170000       0.94480000       0.08920000
   138  H          0.39830000       0.05520000       0.91080000
   139  H          0.48850000       0.86630000       0.13980000
   140  H          0.51150000       0.13370000       0.86020000
   141  C          0.31024000       0.30762000       0.32242000
   142  C          0.68976000       0.69238000       0.67758000
   143  H          0.20170000       0.28930000       0.33110000
   144  H          0.79830000       0.71070000       0.66890000
   145  H          0.32330000       0.36380000       0.28230000
   146  H          0.67670000       0.63620000       0.71770000
   147  H          0.36160000       0.33760000       0.38300000
   148  H          0.63840000       0.66240000       0.61700000
