data_QUZREJ03
_symmetry_space_group_name_H-M    'P1'
_symmetry_Int_Tables_number       1
loop_
_symmetry_equiv_pos_site_id
_symmetry_equiv_pos_as_xyz
1 x,y,z
_cell_length_a                   7.69562
_cell_length_b                   12.32344
_cell_length_c                   15.66475
_cell_angle_alpha                82.07901
_cell_angle_beta                 86.38001
_cell_angle_gamma                84.45901
loop_
_atom_site_label
_atom_site_type_symbol
_atom_site_fract_x
_atom_site_fract_y
_atom_site_fract_z
     1  O          0.54871170       0.46896100       0.24743800
     2  O          0.45128830       0.53103900       0.75256200
     3  O          0.53181160       0.63816100       0.13146800
     4  O          0.46818840       0.36183900       0.86853200
     5  O          0.35528190       0.27933130       0.54913900
     6  O          0.64471810       0.72066870       0.45086100
     7  O          0.29002000       0.44311140       0.48273900
     8  O          0.70998000       0.55688860       0.51726100
     9  N          0.73512000       0.68942130       0.82548100
    10  N          0.26488000       0.31057870       0.17451900
    11  N          0.28332000       0.37294150       0.54644110
    12  N          0.71668000       0.62705850       0.45355890
    13  C          0.78532000       0.43875140       0.00432110
    14  C          0.21468000       0.56124860      -0.00432110
    15  C          0.88712000       0.49195140       0.84612110
    16  C          0.11288000       0.50804860       0.15387890
    17  C         -0.00978000       0.46081140       0.76849110
    18  C          0.00978000       0.53918860       0.23150890
    19  C          0.62802000       0.45291140       0.16984110
    20  C          0.37198000       0.54708860       0.83015890
    21  C          0.61922000       0.54538140       0.10571110
    22  C          0.38078000       0.45461860       0.89428890
    23  C          0.11392000       0.36913140       0.77408110
    24  C          0.88608000       0.63086860       0.22591890
    25  H          0.13220000       0.32640000       0.82850000
    26  H          0.86780000       0.67360000       0.17150000
    27  C          0.79312000       0.34833140       0.06836120
    28  C          0.20688000       0.65166860       0.93163880
    29  H          0.85260000       0.28070000       0.05580000
    30  H          0.14740000       0.71930000       0.94420000
    31  C          0.69692000       0.53850140       0.02484110
    32  C          0.30308000       0.46149860       0.97515890
    33  H          0.69100000       0.60150000       0.98230000
    34  H          0.30900000       0.39850000       0.01770000
    35  C          0.71552000       0.35500140       0.15031120
    36  C          0.28448000       0.64499860       0.84968880
    37  H          0.72240000       0.29230000       0.19300000
    38  H          0.27760000       0.70770000       0.80700000
    39  C          0.80212000       0.60166150       0.83630110
    40  C          0.19788000       0.39833850       0.16369890
    41  C          0.20922000       0.33992150       0.70221120
    42  C          0.79078000       0.66007850       0.29778880
    43  H          0.29210000       0.27730000       0.70660000
    44  H          0.70790000       0.72270000       0.29340000
    45  C          0.96862000       0.52363150       0.68796120
    46  C          0.03138000       0.47636850       0.31203880
    47  H          0.88590000       0.58630000       0.68290000
    48  H          0.11410000       0.41370000       0.31710000
    49  C          0.06552000       0.49617150       0.61538120
    50  C          0.93448000       0.50382850       0.38461880
    51  H          0.05200000       0.54020000       0.56110000
    52  H          0.94800000       0.45980000       0.43890000
    53  C          0.18222000       0.40338160       0.62348120
    54  C          0.81778000       0.59661840       0.37651880
    55  C          0.87142000       0.42317140       0.92104110
    56  C          0.12858000       0.57682860       0.07895890
    57  H          0.92700000       0.35130000       0.91870000
    58  H          0.07300000       0.64870000       0.08130000
    59  C          0.56333000       0.37901160       0.31578120
    60  C          0.43667000       0.62098840       0.68421880
    61  H          0.50390000       0.31780000       0.30090000
    62  H          0.49610000       0.68220000       0.69910000
    63  H          0.50910000       0.40260000       0.36930000
    64  H          0.49090000       0.59740000       0.63070000
    65  H          0.68700000       0.35500000       0.32390000
    66  H          0.31300000       0.64500000       0.67610000
    67  C          0.53503000       0.73779150       0.07274120
    68  C          0.46497000       0.26220850       0.92725880
    69  H          0.65650000       0.75220000       0.05640000
    70  H          0.34350000       0.24780000       0.94360000
    71  H          0.47660000       0.79900000       0.10050000
    72  H          0.52340000       0.20100000       0.89950000
    73  H          0.47420000       0.73040000       0.02100000
    74  H          0.52580000       0.26960000       0.97900000
    75  O          0.61805170       0.20451100       0.72615800
    76  O          0.38194830       0.79548900       0.27384200
    77  O          0.50211180       0.03218100       0.81304800
    78  O          0.49788820       0.96781900       0.18695200
    79  O          0.11132000       0.86311870       0.07073100
    80  O          0.88868000       0.13688130       0.92926900
    81  O          0.19112000       0.02748140       0.03597900
    82  O          0.80888000       0.97251860       0.96402100
    83  N          0.12142000       0.95785860       0.08605110
    84  N          0.87858000       0.04214140       0.91394890
    85  N          0.98252000       0.24048140       0.45768110
    86  N          0.01748000       0.75951860       0.54231890
    87  C          0.62472000       0.11517140       0.68285120
    88  C          0.37528000       0.88482860       0.31714880
    89  C          0.92522000       0.16438150       0.44047110
    90  C          0.07478000       0.83561850       0.55952890
    91  C          0.55782000       0.02140150       0.73027110
    92  C          0.44218000       0.97859850       0.26972890
    93  C          0.55562000       0.92690860       0.69173120
    94  C          0.44438000       0.07309140       0.30826880
    95  H          0.50960000       0.86360000       0.72320000
    96  H          0.49040000       0.13640000       0.27680000
    97  C          0.00112000       0.11658150       0.26973120
    98  C         -0.00112000       0.88341850       0.73026880
    99  H          0.01290000       0.18770000       0.28440000
   100  H         -0.01290000       0.81230000       0.71560000
   101  C          0.62012000       0.92450860       0.60752120
   102  C          0.37988000       0.07549140       0.39247880
   103  H          0.61680000       0.85940000       0.58170000
   104  H          0.38320000       0.14060000       0.41830000
   105  C          0.92152000       0.03965140       0.32968120
   106  C          0.07848000       0.96034860       0.67031880
   107  C          0.86142000       0.06711140       0.41629120
   108  C          0.13858000       0.93288860       0.58370880
   109  C          0.69002000       0.01577140       0.55977120
   110  C          0.30998000       0.98422860       0.44022880
   111  C          0.04662000       0.98769840       0.16927120
   112  C          0.95338000       0.01230160       0.83072880
   113  C          0.68962000       0.11216150       0.59901120
   114  C          0.31038000       0.88783850       0.40098880
   115  H          0.73450000       0.17570000       0.56740000
   116  H          0.26550000       0.82430000       0.43260000
   117  C          0.69032000       0.30126150       0.68230130
   118  C          0.30968000       0.69873850       0.31769870
   119  H          0.81500000       0.28430000       0.66830000
   120  H          0.18500000       0.71570000       0.33170000
   121  H          0.67560000       0.35940000       0.71970000
   122  H          0.32440000       0.64060000       0.28030000
   123  H          0.62970000       0.32620000       0.62900000
   124  H          0.37030000       0.67380000       0.37100000
   125  C          0.06292000       0.09114160       0.18940120
   126  C          0.93708000       0.90885840       0.81059880
   127  H          0.11580000       0.14430000       0.14880000
   128  H          0.88420000       0.85570000       0.85120000
   129  C          0.96733000       0.91009840       0.22631130
   130  C          0.03267000       0.08990160       0.77368870
   131  H          0.95610000       0.83920000       0.21100000
   132  H          0.04390000       0.16080000       0.78900000
   133  C          0.75672000       0.00488150       0.47164120
   134  C          0.24328000      -0.00488150       0.52835880
   135  H          0.72030000       0.94340000       0.44920000
   136  H          0.27970000       0.05660000       0.55080000
   137  C          0.43633000       0.93788840       0.86420120
   138  C          0.56367000       0.06211160       0.13579880
   139  H          0.33440000       0.91740000       0.83750000
   140  H          0.66560000       0.08260000       0.16250000
   141  H          0.40200000       0.95540000       0.92240000
   142  H          0.59800000       0.04460000       0.07760000
   143  H          0.52740000       0.87640000       0.86760000
   144  H          0.47260000       0.12360000       0.13240000
   145  C          0.90433000       0.93629850       0.30604130
   146  C          0.09567000       0.06370150       0.69395870
   147  H          0.84850000       0.88320000       0.34540000
   148  H          0.15150000       0.11680000       0.65460000
