data_QUZREJ
_symmetry_space_group_name_H-M    'P1'
_symmetry_Int_Tables_number       1
loop_
_symmetry_equiv_pos_site_id
_symmetry_equiv_pos_as_xyz
1 x,y,z
_cell_length_a                   10.22118
_cell_length_b                   11.94609
_cell_length_c                   12.27641
_cell_angle_alpha                91.09401
_cell_angle_beta                 99.54201
_cell_angle_gamma                100.15601
loop_
_atom_site_label
_atom_site_type_symbol
_atom_site_fract_x
_atom_site_fract_y
_atom_site_fract_z
     1  O          0.83856130       0.82806100       0.70740900
     2  O          0.16143870       0.17193900       0.29259100
     3  O          0.77000130       0.93616100       0.53428900
     4  O          0.22999870       0.06383900       0.46571100
     5  O          0.55559140       0.19841120       0.52637110
     6  O          0.44440860       0.80158880       0.47362890
     7  O          0.53950140       0.26192120       0.36149100
     8  O          0.46049860       0.73807880       0.63850900
     9  N          0.05331170       0.49336140       0.73956120
    10  N          0.94668830       0.50663860       0.26043880
    11  N          0.51106150       0.25875130       0.45509120
    12  N          0.48893850       0.74124870       0.54490880
    13  C          0.04870180       0.72332150       0.52312130
    14  C          0.95129820       0.27667850       0.47687870
    15  C         -0.00958830       0.73654140       0.61828130
    16  C          0.00958830       0.26345860       0.38171870
    17  H          0.01320000       0.69440000       0.68130000
    18  H         -0.01320000       0.30560000       0.31870000
    19  C          0.90092170       0.80994140       0.62037120
    20  C          0.09907830       0.19005860       0.37962880
    21  C          0.86490170       0.87172140       0.52605130
    22  C          0.13509830       0.12827860       0.47394870
    23  C          0.92618180       0.86239150       0.43441130
    24  C          0.07381820       0.13760850       0.56558870
    25  H          0.90580000       0.90650000       0.37230000
    26  H          0.09420000       0.09350000       0.62770000
    27  C          0.01697180       0.78904150       0.43308130
    28  C         -0.01697180       0.21095850       0.56691870
    29  H          0.05830000       0.78340000       0.36980000
    30  H          0.94170000       0.21660000       0.63020000
    31  C          0.86525190       0.76349160       0.80335130
    32  C          0.13474810       0.23650840       0.19664870
    33  H          0.81460000       0.78430000       0.85940000
    34  H          0.18540000       0.21570000       0.14060000
    35  H          0.96200000       0.78000000       0.83340000
    36  H          0.03800000       0.22000000       0.16660000
    37  H          0.83740000       0.68200000       0.78280000
    38  H          0.16260000       0.31800000       0.21720000
    39  C          0.72379190      -0.00600840       0.43758130
    40  C          0.27620810       0.00600840       0.56241870
    41  H          0.65620000       0.03790000       0.45370000
    42  H          0.34380000       0.96210000       0.54630000
    43  H          0.68340000       0.93790000       0.37660000
    44  H          0.31660000       0.06210000       0.62340000
    45  H          0.80030000       0.04550000       0.41650000
    46  H          0.19970000       0.95450000       0.58350000
    47  C          0.13862180       0.64400150       0.51114130
    48  C          0.86137820       0.35599850       0.48885870
    49  H          0.18770000       0.65860000       0.45210000
    50  H          0.81230000       0.34140000       0.54790000
    51  C          0.16493180       0.55272150       0.56936130
    52  C          0.83506820       0.44727850       0.43063870
    53  C          0.10295180       0.52212150       0.66500130
    54  C          0.89704820       0.47787850       0.33499870
    55  C          0.25355170       0.47620140       0.53921130
    56  C          0.74644830       0.52379860       0.46078870
    57  C          0.29928170       0.39916140       0.61403130
    58  C          0.70071830       0.60083860       0.38596870
    59  H          0.27270000       0.39600000       0.68460000
    60  H          0.72730000       0.60400000       0.31540000
    61  C          0.38285170       0.32729150       0.58691130
    62  C          0.61714830       0.67270850       0.41308870
    63  H          0.41350000       0.27490000       0.63800000
    64  H          0.58650000       0.72510000       0.36200000
    65  C          0.42069170       0.33351140       0.48391130
    66  C          0.57930830       0.66648860       0.51608870
    67  C          0.37606170       0.40682150       0.40728130
    68  C          0.62393830       0.59317850       0.59271870
    69  H          0.40250000       0.40850000       0.33660000
    70  H          0.59750000       0.59150000       0.66340000
    71  C          0.29240170       0.47784150       0.43440130
    72  C          0.70759830       0.52215850       0.56559870
    73  H          0.26060000       0.52840000       0.38180000
    74  H          0.73940000       0.47160000       0.61820000
    75  O          0.70198120       0.97785100       0.86081900
    76  O          0.29801880       0.02214900       0.13918100
    77  O          0.86075120       0.93425100       0.03307900
    78  O          0.13924880       0.06574900       0.96692100
    79  O          0.08469140       0.67994120       0.06765120
    80  O          0.91530860       0.32005880       0.93234880
    81  O          0.21823140       0.70388110       0.22686100
    82  O          0.78176860       0.29611890       0.77313900
    83  N          0.34748150       0.21226130       0.81431110
    84  N          0.65251850       0.78773870       0.18568890
    85  N          0.17862160       0.65717130       0.13420120
    86  N          0.82137840       0.34282870       0.86579880
    87  C          0.61948170       0.17523140       0.06498130
    88  C          0.38051830       0.82476860       0.93501870
    89  C          0.61639170       0.11728150       0.96284130
    90  C          0.38360830       0.88271850       0.03715870
    91  H          0.55760000       0.13310000       0.89890000
    92  H          0.44240000       0.86690000       0.10110000
    93  C          0.69803170       0.03785140       0.95513120
    94  C          0.30196830       0.96214860       0.04486880
    95  C          0.78556170       0.01356140       0.04955130
    96  C          0.21443830       0.98643860       0.95044870
    97  C          0.78929170       0.07024150       0.15006130
    98  C          0.21070830       0.92975850       0.84993870
    99  H          0.84790000       0.05410000       0.21400000
   100  H          0.15210000       0.94590000       0.78600000
   101  C          0.70765170       0.15032150       0.15751130
   102  C          0.29234830       0.84967850       0.84248870
   103  H          0.71160000       0.18900000       0.22670000
   104  H          0.28840000       0.81100000       0.77330000
   105  C          0.62349190       0.00501160       0.76028130
   106  C          0.37650810      -0.00501160       0.23971870
   107  H          0.63510000       0.95590000       0.69900000
   108  H          0.36490000       0.04410000       0.30100000
   109  H          0.65370000       0.08490000       0.74540000
   110  H          0.34630000       0.91510000       0.25460000
   111  H          0.52810000      -0.00710000       0.76760000
   112  H          0.47190000       0.00710000       0.23240000
   113  C          0.95890180       0.91253160       0.12473130
   114  C          0.04109820       0.08746840       0.87526870
   115  H          0.00620000       0.85380000       0.10210000
   116  H         -0.00620000       0.14620000       0.89790000
   117  H          0.91330000       0.88630000       0.18630000
   118  H          0.08670000       0.11370000       0.81370000
   119  H          0.02410000       0.98270000       0.14830000
   120  H          0.97590000       0.01730000       0.85170000
   121  C          0.53948170       0.26103150       0.08144130
   122  C          0.46051830       0.73896850       0.91855870
   123  H          0.55970000       0.29650000       0.15370000
   124  H          0.44030000       0.70350000       0.84630000
   125  C          0.44121170       0.29992140       0.01262120
   126  C          0.55878830       0.70007860       0.98737880
   127  C          0.39106170       0.24995140       0.90229130
   128  C          0.60893830       0.75004860       0.09770870
   129  C          0.37513170       0.39410140       0.04263120
   130  C          0.62486830       0.60589860       0.95736880
   131  C          0.25478180       0.41207150       0.97922130
   132  C          0.74521820       0.58792850       0.02077870
   133  H          0.21560000       0.36340000       0.91580000
   134  H          0.78440000       0.63660000       0.08420000
   135  C          0.19096180       0.49957150       0.00682140
   136  C          0.80903820       0.50042850      -0.00682140
   137  H          0.11050000       0.51260000       0.96190000
   138  H          0.88950000       0.48740000       0.03810000
   139  C          0.24767170       0.56705140       0.10128130
   140  C          0.75232830       0.43294860       0.89871870
   141  C          0.36790180       0.55373140       0.16528130
   142  C          0.63209820       0.44626860       0.83471870
   143  H          0.40580000       0.60230000       0.22900000
   144  H          0.59420000       0.39770000       0.77100000
   145  C          0.43196180       0.46850140       0.13491130
   146  C          0.56803820       0.53149860       0.86508870
   147  H          0.51600000       0.46000000       0.17720000
   148  H          0.48400000       0.54000000       0.82280000
