data_RATNIN02
_symmetry_space_group_name_H-M    'P1'
_symmetry_Int_Tables_number       1
loop_
_symmetry_equiv_pos_site_id
_symmetry_equiv_pos_as_xyz
1 x,y,z
_cell_length_a                   6.26128
_cell_length_b                   15.8882
_cell_length_c                   18.9763
_cell_angle_alpha                112.9794
_cell_angle_beta                 93.2905
_cell_angle_gamma                93.8075
loop_
_atom_site_label
_atom_site_type_symbol
_atom_site_fract_x
_atom_site_fract_y
_atom_site_fract_z
     1  P          0.82913800       0.09141400       0.41042300
     2  P          0.17086200       0.90858600       0.58957700
     3  O          0.78692000       0.07725110       0.32219800
     4  O          0.21308000       0.92274890       0.67780200
     5  O          0.84292000       0.20068100       0.45759900
     6  O          0.15708000       0.79931900       0.54240100
     7  O          0.63082000       0.04516100       0.42462900
     8  O          0.36918000       0.95483900       0.57537100
     9  O          0.04122000       0.06432110       0.42657900
    10  O          0.95878000       0.93567890       0.57342100
    11  C          0.94263000       0.10276150       0.28210120
    12  C          0.05737000       0.89723850       0.71789880
    13  C          0.89554000       0.16772170       0.25358130
    14  C          0.10446000       0.83227830       0.74641870
    15  H          0.76446400       0.19548700       0.26293000
    16  H          0.23553600       0.80451300       0.73707000
    17  C          0.04244000       0.19188180       0.21100140
    18  C          0.95756000       0.80811820       0.78899860
    19  H          0.01248000       0.23684300       0.19134000
    20  H         -0.01248000       0.76315700       0.80866000
    21  C          0.23264000       0.15073180       0.19703140
    22  C          0.76736000       0.84926820       0.80296860
    23  H          0.33250900       0.16728700       0.16772000
    24  H          0.66749100       0.83271300       0.83228000
    25  C          0.27674000       0.08527170       0.22596130
    26  C          0.72326000       0.91472830       0.77403870
    27  H          0.40733800       0.05724700       0.21648900
    28  H          0.59266200       0.94275300       0.78351100
    29  C          0.13123000       0.06046160       0.26864130
    30  C          0.86877000       0.93953840       0.73135870
    31  H          0.16045200       0.01535000       0.28821100
    32  H          0.83954800       0.98465000       0.71178900
    33  C          0.67743000       0.25695150       0.46408120
    34  C          0.32257000       0.74304850       0.53591880
    35  C          0.48243000       0.22770160       0.41911130
    36  C          0.51757000       0.77229840       0.58088870
    37  H          0.45564200       0.16671500       0.38138000
    38  H          0.54435800       0.83328500       0.61862000
    39  C          0.32753000       0.28907160       0.43026130
    40  C          0.67247000       0.71092840       0.56973870
    41  H          0.19392000       0.26992100       0.39960400
    42  H          0.80608000       0.73007900       0.60039600
    43  C          0.36504000       0.37788170       0.48549130
    44  C          0.63496000       0.62211830       0.51450870
    45  H          0.25755000       0.41934400       0.49336200
    46  H          0.74245000       0.58065600       0.50663800
    47  C          0.56244000       0.40550170       0.52931140
    48  C          0.43756000       0.59449830       0.47068860
    49  H          0.58977100       0.46645100       0.56705000
    50  H          0.41022900       0.53354900       0.43295000
    51  C          0.71893000       0.34568160       0.51874130
    52  C          0.28107000       0.65431840       0.48125870
    53  H          0.85362600       0.36521200       0.54865300
    54  H          0.14637400       0.63478800       0.45134700
    55  P          0.14499900       0.39783400       0.09000300
    56  P          0.85500100       0.60216600       0.90999700
    57  O          0.10982000       0.46315110       0.17630900
    58  O          0.89018000       0.53684890       0.82369100
    59  O          0.22862000       0.31242110       0.10515800
    60  O          0.77138000       0.68757890       0.89484200
    61  O          0.32712000       0.44699110       0.06964900
    62  O          0.67288000       0.55300890       0.93035100
    63  O          0.94198000       0.36811110       0.03927900
    64  O          0.05802000       0.63188890       0.96072100
    65  C          0.97147000       0.43840150       0.22253120
    66  C          0.02853000       0.56159850       0.77746880
    67  C          0.06063000       0.45038160       0.29492130
    68  C          0.93937000       0.54961840       0.70507870
    69  H          0.20751400       0.47251100       0.31053300
    70  H          0.79248600       0.52748900       0.68946700
    71  C          0.93166000       0.42956170       0.34404140
    72  C          0.06834000       0.57043830       0.65595860
    73  H         -0.00909100       0.43764000       0.39374800
    74  H          0.00909100       0.56236000       0.60625200
    75  C          0.71626000       0.39688160       0.32124140
    76  C          0.28374000       0.60311840       0.67875860
    77  H          0.62870900       0.38193000       0.35475500
    78  H          0.37129100       0.61807000       0.64524500
    79  C          0.63227000       0.38660160       0.24932140
    80  C          0.36773000       0.61339840       0.75067860
    81  H          0.48542500       0.36429500       0.23359000
    82  H          0.51457500       0.63570500       0.76641000
    83  C          0.75667000       0.40800160       0.19924130
    84  C          0.24333000       0.59199840       0.80075870
    85  H          0.69603400       0.40192700       0.15025300
    86  H          0.30396600       0.59807300       0.84974700
    87  C          0.24124000       0.22680160       0.04543130
    88  C          0.75876000       0.77319840       0.95456870
    89  C          0.43924000       0.19773190       0.02809180
    90  C          0.56076000       0.80226810       0.97190820
    91  H          0.56562300       0.23716600       0.05302000
    92  H          0.43437700       0.76283400       0.94698000
    93  C          0.45375000       0.11012000       0.97368000
    94  C          0.54625000       0.88988000       0.02632000
    95  H          0.59121900       0.08954900       0.96149400
    96  H          0.40878100       0.91045100       0.03850600
    97  C          0.27385000       0.05282000       0.93740830
    98  C          0.72615000       0.94718000       0.06259170
    99  H          0.28565300      -0.00731700       0.90032900
   100  H          0.71434700       0.00731700       0.09967100
   101  C          0.07775000       0.08242000       0.95476810
   102  C          0.92225000       0.91758000       0.04523190
   103  H          0.95191300       0.04291600       0.92915500
   104  H          0.04808700       0.95708400       0.07084500
   105  C          0.05864000       0.16967190       0.00953180
   106  C          0.94136000       0.83032810       0.99046820
   107  H          0.92073300       0.18962800       0.02200300
   108  H          0.07926700       0.81037200       0.97799700
   109  Cl         0.78604800       0.13138400       0.62557300
   110  Cl         0.21395200       0.86861600       0.37442700
   111  N          0.36233000       0.10617130       0.53707110
   112  N          0.63767000       0.89382870       0.46292890
   113  H          0.23340000       0.10271800       0.51051500
   114  H          0.76660000       0.89728200       0.48948500
   115  H          0.35240000       0.05920000       0.55421600
   116  H          0.64760000       0.94080000       0.44578400
   117  H          0.46840000       0.08911800       0.50191500
   118  H          0.53160000       0.91088200       0.49808500
   119  C          0.41573000       0.19632150       0.59777120
   120  C          0.58427000       0.80367850       0.40222880
   121  C          0.61163000       0.21652160       0.64279130
   122  C          0.38837000       0.78347840       0.35720870
   123  C          0.66394000       0.30221170       0.70060130
   124  C          0.33606000       0.69778830       0.29939870
   125  H          0.79836200       0.31617500       0.73050900
   126  H          0.20163800       0.68382500       0.26949100
   127  C          0.51814000       0.36822170       0.71488140
   128  C          0.48186000       0.63177830       0.28511860
   129  H          0.55170100       0.42691600       0.75551600
   130  H          0.44829900       0.57308400       0.24448400
   131  C          0.32394000       0.34846160       0.66987130
   132  C          0.67606000       0.65153840       0.33012870
   133  H          0.22583800       0.39396400       0.67937300
   134  H          0.77416200       0.60603600       0.32062700
   135  C          0.27273000       0.26262160       0.61116130
   136  C          0.72727000       0.73737840       0.38883870
   137  H          0.14009500       0.24929200       0.58022400
   138  H          0.85990500       0.75070800       0.41977600
   139  Cl         0.81577900       0.60623500       0.12382400
   140  Cl         0.18422100       0.39376500       0.87617600
   141  N          0.38713000       0.60367140       0.04207110
   142  N          0.61287000       0.39632860       0.95792890
   143  H          0.48940000       0.58911700       0.00691400
   144  H          0.51060000       0.41088300      -0.00691400
   145  H          0.26140000       0.61151800       0.01731400
   146  H          0.73860000       0.38848200       0.98268600
   147  H          0.34940000       0.55520000       0.05621600
   148  H          0.65060000       0.44480000       0.94378400
   149  C          0.46044000       0.68859160       0.10718130
   150  C          0.53956000       0.31140840       0.89281870
   151  C          0.66024000       0.69845180       0.14726140
   152  C          0.33976000       0.30154820       0.85273860
   153  C          0.73345000       0.78052000       0.20693150
   154  C          0.26655000       0.21948000       0.79306850
   155  H          0.87085000       0.78779900       0.23369700
   156  H          0.12915000       0.21220100       0.76630300
   157  C          0.60425000       0.85182000       0.22725170
   158  C          0.39575000       0.14818000       0.77274830
   159  H          0.65344500       0.90871900       0.26817300
   160  H          0.34655500       0.09128100       0.73182700
   161  C          0.40315000       0.84127190       0.18852160
   162  C          0.59685000       0.15872810       0.81147840
   163  H          0.31482300       0.89059800       0.20363100
   164  H          0.68517700       0.10940200       0.79636900
   165  C          0.33054000       0.75958180       0.12814140
   166  C          0.66946000       0.24041820       0.87185860
   167  H          0.19300800       0.75237200       0.10143400
   168  H          0.80699200       0.24762800       0.89856600
