data_RATNIN01
_symmetry_space_group_name_H-M    'P1'
_symmetry_Int_Tables_number       1
loop_
_symmetry_equiv_pos_site_id
_symmetry_equiv_pos_as_xyz
1 x,y,z
_cell_length_a                   6.63849
_cell_length_b                   9.748014
_cell_length_c                   14.5092
_cell_angle_alpha                96.2654
_cell_angle_beta                 91.1124
_cell_angle_gamma                103.0194
loop_
_atom_site_label
_atom_site_type_symbol
_atom_site_fract_x
_atom_site_fract_y
_atom_site_fract_z
     1  P          0.33361800       0.48530600       0.68110400
     2  P          0.66638200       0.51469400       0.31889600
     3  O          0.28542000       0.36951160       0.75209100
     4  O          0.71458000       0.63048840       0.24790900
     5  O          0.13802000       0.46231160       0.62467100
     6  O          0.86198000       0.53768840       0.37532900
     7  O          0.37752000       0.63342170       0.74559120
     8  O          0.62248000       0.36657830       0.25440880
     9  O          0.52732000       0.48111180       0.63395110
    10  O          0.47268000       0.51888820       0.36604890
    11  C          0.43203000       0.33792000       0.81211150
    12  C          0.56797000       0.66208000       0.18788850
    13  C          0.23194000       0.69832000       0.78934150
    14  C          0.76806000       0.30168000       0.21065850
    15  C          0.60354000       0.29423000       0.77960170
    16  C          0.39646000       0.70577000       0.22039830
    17  H          0.62901800       0.28877900       0.71665700
    18  H          0.37098200       0.71122100       0.28334300
    19  C          0.03754000       0.62553000       0.80857170
    20  C          0.96246000       0.37447000       0.19142830
    21  H         -0.00429100       0.52811300       0.79217200
    22  H          0.00429100       0.47188700       0.20782800
    23  C          0.29445000       0.84113000       0.81359180
    24  C          0.70555000       0.15887000       0.18640820
    25  H          0.42650300       0.88982700       0.80104400
    26  H          0.57349700       0.11017300       0.19895600
    27  C          0.39105000       0.34424000       0.90435180
    28  C          0.60895000       0.65576000       0.09564820
    29  H          0.27381500       0.37246300       0.92571800
    30  H          0.72618500       0.62753700       0.07428200
    31  C          0.73695000       0.25863000       0.84222000
    32  C          0.26305000       0.74137000       0.15778000
    33  H          0.85412000       0.22994300       0.82130600
    34  H          0.14588000       0.77005700       0.17869400
    35  C          0.90615000       0.69934000       0.85242000
    36  C          0.09385000       0.30066000       0.14758000
    37  H          0.77451200       0.65037100       0.86535200
    38  H          0.22548800       0.34962900       0.13464800
    39  C          0.69885000       0.26494000       0.93442000
    40  C          0.30115000       0.73506000       0.06558000
    41  H          0.78923200       0.24028300       0.97594200
    42  H          0.21076800       0.75971700       0.02405800
    43  C          0.15697000       0.91264000       0.85742000
    44  C          0.84303000       0.08736000       0.14258000
    45  H          0.19680400       0.01019000       0.87350200
    46  H          0.80319600      -0.01019000       0.12649800
    47  C          0.52826000       0.30744000       0.96522000
    48  C          0.47174000       0.69256000       0.03478000
    49  H          0.50299900       0.31192500       0.02819600
    50  H          0.49700100       0.68807500       0.97180400
    51  C          0.96213000       0.84045000       0.87722000
    52  C          0.03787000       0.15955000       0.12278000
    53  H          0.87107700       0.88813900       0.90723600
    54  H          0.12892300       0.11186100       0.09276400
    55  Cl         0.29291100       0.76025900       0.50688600
    56  Cl         0.70708900       0.23974100       0.49311400
    57  N          0.87503000       0.62064190       0.56571140
    58  N          0.12497000       0.37935810       0.43428860
    59  C          0.93403000       0.77282000       0.58970140
    60  C          0.06597000       0.22718000       0.41029860
    61  C          0.79774000       0.84103000       0.63434170
    62  C          0.20226000       0.15897000       0.36565830
    63  H          0.66974900       0.78911700       0.64965800
    64  H          0.33025100       0.21088300       0.35034200
    65  C          0.12654000       0.84863000       0.56708170
    66  C          0.87346000       0.15137000       0.43291830
    67  C          0.17996000      -0.00586000       0.59062000
    68  C          0.82004000       0.00586000       0.40938000
    69  H          0.30882900       0.04639900       0.57676400
    70  H          0.69117100       0.95360100       0.42323600
    71  C          0.84906000      -0.01467000       0.65652000
    72  C          0.15094000       0.01467000       0.34348000
    73  H          0.75554600       0.03152800       0.68594600
    74  H          0.24445400       0.96847200       0.31405400
    75  C          0.03897000       0.06103000       0.63502000
    76  C          0.96103000       0.93897000       0.36498000
    77  H          0.07376900       0.15876900       0.65048700
    78  H          0.92623100       0.84123100       0.34951300
    79  H          0.74040000       0.58130000       0.59181700
    80  H          0.25960000       0.41870000       0.40818300
    81  H          0.97140000       0.58130000       0.58961600
    82  H          0.02860000       0.41870000       0.41038400
    83  H          0.86340000       0.59830000       0.50220000
    84  H          0.13660000       0.40170000       0.49780000
