data_RATNIN
_symmetry_space_group_name_H-M    'P1'
_symmetry_Int_Tables_number       1
loop_
_symmetry_equiv_pos_site_id
_symmetry_equiv_pos_as_xyz
1 x,y,z
_cell_length_a                   11.13364
_cell_length_b                   5.81952
_cell_length_c                   13.87866
_cell_angle_alpha                90.0
_cell_angle_beta                 108.1903
_cell_angle_gamma                90.0
loop_
_atom_site_label
_atom_site_type_symbol
_atom_site_fract_x
_atom_site_fract_y
_atom_site_fract_z
     1  Cl         0.10437500       0.79057900       0.37882400
     2  Cl         0.89562500       0.29057900       0.62117600
     3  N          0.14740180       0.21234000       0.51333150
     4  N          0.85259820       0.71234000       0.48666850
     5  C          0.23862000       0.17354000       0.45907170
     6  C          0.76138000       0.67354000       0.54092830
     7  C          0.31312000       0.95415000       0.34178190
     8  C          0.68688000       0.45415000       0.65821810
     9  H          0.30617300       0.82427500       0.29895000
    10  H          0.69382700       0.32427500       0.70105000
    11  C          0.22752000      -0.01484000       0.39555180
    12  C          0.77248000       0.48516000       0.60444820
    13  C          0.33442000       0.33165000       0.46864180
    14  C          0.66558000       0.83165000       0.53135820
    15  H          0.34211100       0.46026400       0.51231400
    16  H          0.65788900       0.96026400       0.48768600
    17  C          0.41942000       0.30265000       0.41429190
    18  C          0.58058000       0.80265000       0.58570810
    19  H          0.48493000       0.41151600       0.42038400
    20  H          0.51507000       0.91151600       0.57961600
    21  C          0.40782000       0.11295000       0.35108190
    22  C          0.59218000       0.61295000       0.64891810
    23  H          0.46573500       0.09269100       0.31396800
    24  H          0.53426500       0.59269100       0.68603200
    25  H          0.17930000       0.31560000       0.56420000
    26  H          0.82070000       0.81560000       0.43580000
    27  H          0.07230000       0.25760000       0.46920000
    28  H          0.92770000       0.75760000       0.53080000
    29  H          0.13030000       0.07360000       0.54520000
    30  H          0.86970000       0.57360000       0.45480000
    31  P          0.19441500       0.73663100       0.68779400
    32  P          0.80558500       0.23663100       0.31220600
    33  O          0.24989160       0.51993000       0.66599130
    34  O          0.75010840       0.01993000       0.33400870
    35  O          0.08334150       0.84213000       0.61028120
    36  O          0.91665850       0.34213000       0.38971880
    37  O          0.16423140       0.70053000       0.79224110
    38  O          0.83576860       0.20053000       0.20775890
    39  O          0.29714150       0.94103000       0.70970120
    40  O          0.70285850       0.44103000       0.29029880
    41  C          0.40972000       0.95355000       0.78950170
    42  C          0.59028000       0.45355000       0.21049830
    43  C          0.96578000       0.78805000       0.81620170
    44  C          0.03422000       0.28805000       0.18379830
    45  H          0.93501300       0.64285200       0.78771700
    46  H          0.06498700       0.14285200       0.21228300
    47  C          0.56682000       0.81425000       0.93783180
    48  C          0.43318000       0.31425000       0.06216820
    49  H          0.59865200       0.69617200       0.98640200
    50  H          0.40134800       0.19617200       0.01359800
    51  C          0.88968000       0.93205000       0.85087190
    52  C          0.11032000       0.43205000       0.14912810
    53  H          0.80612600       0.88624100       0.84604300
    54  H          0.19387400       0.38624100       0.15395700
    55  C          0.63242000       0.01905000       0.94611190
    56  C          0.36758000       0.51905000       0.05388810
    57  H          0.70836200       0.04194500       0.00036000
    58  H          0.29163800       0.54194500      -0.00036000
    59  C          0.08702000       0.85624000       0.82320170
    60  C          0.91298000       0.35624000       0.17679830
    61  C          0.47442000       0.15865000       0.79607190
    62  C          0.52558000       0.65865000       0.20392810
    63  H          0.44265500       0.27657000       0.74744300
    64  H          0.55734500       0.77657000       0.25255700
    65  C          0.45442000       0.77885000       0.85894160
    66  C          0.54558000       0.27885000       0.14105840
    67  H          0.40975300       0.63773800       0.85314400
    68  H          0.59024700       0.13773800       0.14685600
    69  C          0.13342000       0.06785000       0.86330180
    70  C          0.86658000       0.56785000       0.13669820
    71  H          0.21619800       0.11483900       0.86642500
    72  H          0.78380200       0.61483900       0.13357500
    73  C          0.05692000       0.20935000       0.89870190
    74  C          0.94308000       0.70935000       0.10129810
    75  H          0.08816200       0.35389600       0.92758200
    76  H          0.91183800       0.85389600       0.07241800
    77  C          0.58672000       0.19005000       0.87501190
    78  C          0.41328000       0.69005000       0.12498810
    79  H          0.63221200       0.32995700       0.87995900
    80  H          0.36778800       0.82995700       0.12004100
    81  C          0.93498000       0.14325000       0.89267190
    82  C          0.06502000       0.64325000       0.10732810
    83  H          0.88302700       0.24200700       0.91703300
    84  H          0.11697300       0.74200700       0.08296700
