data_RESORA31
_symmetry_space_group_name_H-M    'P1'
_symmetry_Int_Tables_number       1
loop_
_symmetry_equiv_pos_site_id
_symmetry_equiv_pos_as_xyz
1 x,y,z
_cell_length_a                   10.63488
_cell_length_b                   9.500416
_cell_length_c                   10.8732
_cell_angle_alpha                90.0
_cell_angle_beta                 114.71315
_cell_angle_gamma                90.0
loop_
_atom_site_label
_atom_site_type_symbol
_atom_site_fract_x
_atom_site_fract_y
_atom_site_fract_z
     1  O          0.29479190       0.53263000       0.40022000
     2  O          0.70520810       0.03263000       0.09978000
     3  O          0.70520810       0.46737000       0.59978000
     4  O          0.29479190       0.96737000       0.90022000
     5  H          0.35928800       0.58340800       0.40580400
     6  H          0.64071200       0.08340800       0.09419600
     7  H          0.64071200       0.41659200       0.59419600
     8  H          0.35928800       0.91659200       0.90580400
     9  O          0.07062000       0.80994000       0.00394000
    10  O          0.92938000       0.30994000       0.49606000
    11  O          0.92938000       0.19006000      -0.00394000
    12  O          0.07062000       0.69006000       0.50394000
    13  H         -0.00765500       0.83568600       0.95327500
    14  H          0.00765500       0.33568600       0.54672500
    15  H          0.00765500       0.16431400       0.04672500
    16  H         -0.00765500       0.66431400       0.45327500
    17  C          0.18053000       0.67565000       0.20185000
    18  C          0.81947000       0.17565000       0.29815000
    19  C          0.81947000       0.32435000       0.79815000
    20  C          0.18053000       0.82435000       0.70185000
    21  H          0.26080700       0.72758500       0.22197900
    22  H          0.73919300       0.22758500       0.27802100
    23  H          0.73919300       0.27241500       0.77802100
    24  H          0.26080700       0.77241500       0.72197900
    25  C          0.06233000       0.70525000       0.08854000
    26  C          0.93767000       0.20525000       0.41146000
    27  C          0.93767000       0.29475000       0.91146000
    28  C          0.06233000       0.79475000       0.58854000
    29  C          0.17803000       0.56745000       0.28515000
    30  C          0.82197000       0.06745000       0.21485000
    31  C          0.82197000       0.43255000       0.71485000
    32  C          0.17803000       0.93255000       0.78515000
    33  C          0.93967000       0.63205000       0.05945000
    34  C          0.06033000       0.13205000       0.44055000
    35  C          0.06033000       0.36795000       0.94055000
    36  C          0.93967000       0.86795000       0.55945000
    37  H          0.85951600       0.65243000       0.98281300
    38  H          0.14048400       0.15243000       0.51718700
    39  H          0.14048400       0.34757000       0.01718700
    40  H          0.85951600       0.84757000       0.48281300
    41  C          0.94177000       0.52836000       0.14845000
    42  C          0.05823000       0.02836000       0.35155000
    43  C          0.05823000       0.47164000       0.85155000
    44  C          0.94177000       0.97164000       0.64845000
    45  H          0.86000000       0.48109500       0.13324400
    46  H          0.14000000       0.98109500       0.36675600
    47  H          0.14000000       0.51890500       0.86675600
    48  H          0.86000000       0.01890500       0.63324400
    49  C          0.05923000       0.49234000       0.25784000
    50  C          0.94077000      -0.00766000       0.24216000
    51  C          0.94077000       0.50766000       0.74216000
    52  C          0.05923000       0.00766000       0.75784000
    53  H          0.05887100       0.41790600       0.31320100
    54  H          0.94112900       0.91790600       0.18679900
    55  H          0.94112900       0.58209400       0.68679900
    56  H          0.05887100       0.08209400       0.81320100
    57  O          0.52732000       0.68884000       0.48664000
    58  O          0.47268000       0.18884000       0.01336000
    59  O          0.47268000       0.31116000       0.51336000
    60  O          0.52732000       0.81116000      -0.01336000
    61  H          0.59012400       0.63103100       0.51703800
    62  H          0.40987600       0.13103100       0.98296200
    63  H          0.40987600       0.36896900       0.48296200
    64  H          0.59012400       0.86896900       0.01703800
    65  O          0.81452000       0.93733000       0.88372000
    66  O          0.18548000       0.43733000       0.61628000
    67  O          0.18548000       0.06267000       0.11628000
    68  O          0.81452000       0.56267000       0.38372000
    69  H          0.82342700       0.01888000       0.91066900
    70  H          0.17657300       0.51888000       0.58933100
    71  H          0.17657300       0.98112000       0.08933100
    72  H          0.82342700       0.48112000       0.41066900
    73  C          0.67153000       0.81186000       0.68905000
    74  C          0.32847000       0.31186000       0.81095000
    75  C          0.32847000       0.18814000       0.31095000
    76  C          0.67153000       0.68814000       0.18905000
    77  H          0.74610100       0.75392600       0.70037500
    78  H          0.25389900       0.25392600       0.79962500
    79  H          0.25389900       0.24607400       0.29962500
    80  H          0.74610100       0.74607400       0.20037500
    81  C          0.45063000       0.98266000       0.65595000
    82  C          0.54937000       0.48266000       0.84405000
    83  C          0.54937000       0.01734000       0.34405000
    84  C          0.45063000       0.51734000       0.15595000
    85  H          0.37569000       0.03979100       0.64509500
    86  H          0.62431000       0.53979100       0.85490500
    87  H          0.62431000       0.96020900       0.35490500
    88  H          0.37569000       0.46020900       0.14509500
    89  C          0.68633000       0.92036000       0.77975000
    90  C          0.31367000       0.42036000       0.72025000
    91  C          0.31367000       0.07964000       0.22025000
    92  C          0.68633000       0.57964000       0.27975000
    93  C          0.54573000       0.79136000       0.58275000
    94  C          0.45427000       0.29136000       0.91725000
    95  C          0.45427000       0.20864000       0.41725000
    96  C          0.54573000       0.70864000       0.08275000
    97  C          0.57663000       0.00714000       0.76154000
    98  C          0.42337000       0.50714000       0.73846000
    99  C          0.42337000      -0.00714000       0.23846000
   100  C          0.57663000       0.49286000       0.26154000
   101  H          0.58773800       0.08189100       0.82038000
   102  H          0.41226200       0.58189100       0.67962000
   103  H          0.41226200       0.91810900       0.17962000
   104  H          0.58773800       0.41810900       0.32038000
   105  C          0.43313000       0.87466000       0.56565000
   106  C          0.56687000       0.37466000       0.93435000
   107  C          0.56687000       0.12534000       0.43435000
   108  C          0.43313000       0.62534000       0.06565000
   109  H          0.34730700       0.85810000       0.49451300
   110  H          0.65269300       0.35810000       0.00548700
   111  H          0.65269300       0.14190000       0.50548700
   112  H          0.34730700       0.64190000      -0.00548700
