data_RESORA24
_symmetry_space_group_name_H-M    'P1'
_symmetry_Int_Tables_number       1
loop_
_symmetry_equiv_pos_site_id
_symmetry_equiv_pos_as_xyz
1 x,y,z
_cell_length_a                   7.92693
_cell_length_b                   12.61265
_cell_length_c                   5.52062
_cell_angle_alpha                90.0
_cell_angle_beta                 90.0
_cell_angle_gamma                90.0
loop_
_atom_site_label
_atom_site_type_symbol
_atom_site_fract_x
_atom_site_fract_y
_atom_site_fract_z
     1  O          0.62044170       0.28946100       0.25183000
     2  O          0.37955830       0.71053900       0.75183000
     3  O          0.12044170       0.21053900       0.25183000
     4  O          0.87955830       0.78946100       0.75183000
     5  H          0.54445100       0.31786000       0.17468500
     6  H          0.45554900       0.68214000       0.67468500
     7  H          0.04445100       0.18214000       0.17468500
     8  H          0.95554900       0.81786000       0.67468500
     9  O          0.67867170       0.64248100       0.53993000
    10  O          0.32132830       0.35751900       0.03993000
    11  O          0.17867170       0.85751900       0.53993000
    12  O          0.82132830       0.14248100       0.03993000
    13  H          0.75336500       0.68023200       0.59573600
    14  H          0.24663500       0.31976800       0.09573600
    15  H          0.25336500       0.81976800       0.59573600
    16  H          0.74663500       0.18023200       0.09573600
    17  C          0.72542000       0.53778130       0.55964000
    18  C          0.27458000       0.46221870       0.05964000
    19  C          0.22542000       0.96221870       0.55964000
    20  C          0.77458000       0.03778130       0.05964000
    21  C          0.68872000       0.36137140       0.41124000
    22  C          0.31128000       0.63862860       0.91124000
    23  C          0.18872000       0.13862860       0.41124000
    24  C          0.81128000       0.86137140       0.91124000
    25  C          0.65392000       0.46859140       0.39414000
    26  C          0.34608000       0.53140860       0.89414000
    27  C          0.15392000       0.03140860       0.39414000
    28  C          0.84608000       0.96859140       0.89414000
    29  H          0.58320000       0.49391700       0.27279300
    30  H          0.41680000       0.50608300       0.77279300
    31  H          0.08320000       0.00608300       0.27279300
    32  H          0.91680000      -0.00608300       0.77279300
    33  C          0.79483000       0.32303150       0.58914000
    34  C          0.20517000       0.67696850       0.08914000
    35  C          0.29483000       0.17696850       0.58914000
    36  C          0.70517000       0.82303150       0.08914000
    37  H          0.81787100       0.25090500       0.60040000
    38  H          0.18212900       0.74909500       0.10040000
    39  H          0.31787100       0.24909500       0.60040000
    40  H          0.68212900       0.75090500       0.10040000
    41  C          0.83293000       0.50184180       0.73844000
    42  C          0.16707000       0.49815820       0.23844000
    43  C          0.33293000      -0.00184180       0.73844000
    44  C          0.66707000       0.00184180       0.23844000
    45  H          0.88171300       0.54869200       0.84797800
    46  H          0.11828700       0.45130800       0.34797800
    47  H          0.38171300       0.95130800       0.84797800
    48  H          0.61828700       0.04869200       0.34797800
    49  C          0.86623000       0.39416190       0.75025000
    50  C          0.13377000       0.60583810       0.25025000
    51  C          0.36623000       0.10583810       0.75025000
    52  C          0.63377000       0.89416190       0.25025000
    53  H          0.93853200       0.36894300       0.86971300
    54  H          0.06146800       0.63105700       0.36971300
    55  H          0.43853200       0.13105700       0.86971300
    56  H          0.56146800       0.86894300       0.36971300
