data_RESORA27
_symmetry_space_group_name_H-M    'P1'
_symmetry_Int_Tables_number       1
loop_
_symmetry_equiv_pos_site_id
_symmetry_equiv_pos_as_xyz
1 x,y,z
_cell_length_a                   17.8765
_cell_length_b                   10.4646
_cell_length_c                   5.704516
_cell_angle_alpha                90.0
_cell_angle_beta                 90.0
_cell_angle_gamma                90.0
loop_
_atom_site_label
_atom_site_type_symbol
_atom_site_fract_x
_atom_site_fract_y
_atom_site_fract_z
     1  O          0.49097000       0.60251800       0.74220000
     2  O          0.00903000       0.39748200       0.24220000
     3  O          0.99097000       0.89748200       0.25780000
     4  O          0.50903000       0.10251800       0.75780000
     5  H          0.45058700       0.63941900       0.75394900
     6  H          0.04941300       0.36058100       0.25394900
     7  H          0.95058700       0.86058100       0.24605100
     8  H          0.54941300       0.13941900       0.74605100
     9  O          0.36686000       0.42231900       0.07531900
    10  O          0.13314000       0.57768100       0.57531900
    11  O          0.86686000       0.07768100       0.92468100
    12  O          0.63314000       0.92231900       0.42468100
    13  H          0.37458800       0.36791000       0.97468100
    14  H          0.12541200       0.63209000       0.47468100
    15  H          0.87458800       0.13209000       0.02531900
    16  H          0.62541200       0.86791000       0.52531900
    17  C          0.48781000       0.51630000       0.55930000
    18  C          0.01219000       0.48370000       0.05930000
    19  C          0.98781000       0.98370000       0.44070000
    20  C          0.51219000       0.01630000       0.94070000
    21  C          0.42759000       0.42630000       0.23430000
    22  C          0.07241000       0.57370000       0.73430000
    23  C          0.92759000       0.07370000       0.76570000
    24  C          0.57241000       0.92630000       0.26570000
    25  C          0.42651100       0.51030000       0.40540000
    26  C          0.07348900       0.48970000       0.90540000
    27  C          0.92651100      -0.01030000       0.59460000
    28  C          0.57348900       0.01030000       0.09460000
    29  H          0.38594100       0.56502400       0.42401900
    30  H          0.11405900       0.43497600       0.92401900
    31  H          0.88594100       0.93497600       0.57598100
    32  H          0.61405900       0.06502400       0.07598100
    33  C          0.48761000       0.33940000       0.19530000
    34  C          0.01239000       0.66060000       0.69530000
    35  C          0.98761000       0.16060000       0.80470000
    36  C          0.51239000       0.83940000       0.30470000
    37  H          0.48679900       0.27928500       0.07507800
    38  H          0.01320100       0.72071500       0.57507800
    39  H          0.98679900       0.22071500       0.92492200
    40  H          0.51320100       0.77928500       0.42492200
    41  C          0.54781100       0.43530000       0.53340000
    42  C          0.95218900       0.56470000       0.03340000
    43  C          0.04781100       0.06470000       0.46660000
    44  C          0.45218900       0.93530000       0.96660000
    45  H          0.58754400       0.43871500       0.63831300
    46  H          0.91245600       0.56128500       0.13831300
    47  H          0.08754400       0.06128500       0.36168700
    48  H          0.41245600       0.93871500       0.86168700
    49  C          0.54871200       0.35140000       0.35230000
    50  C          0.95128800       0.64860000       0.85230000
    51  C          0.04871200       0.14860000       0.64770000
    52  C          0.45128800       0.85140000       0.14770000
    53  H          0.59048900       0.29886400       0.33018200
    54  H          0.90951100       0.70113600       0.83018200
    55  H          0.09048900       0.20113600       0.66981800
    56  H          0.40951100       0.79886400       0.16981800
    57  O          0.15727000       0.35720000       0.34720000
    58  O          0.34273000       0.64280000       0.84720000
    59  O          0.65727000       0.14280000       0.65280000
    60  O          0.84273000       0.85720000       0.15280000
    61  H          0.15867900       0.40829900       0.45540700
    62  H          0.34132100       0.59170100       0.95540700
    63  H          0.65867900       0.09170100       0.54459300
    64  H          0.84132100       0.90829900       0.04459300
    65  O          0.38126000       0.24251900       0.73881700
    66  O          0.11874000       0.75748100       0.23881700
    67  O          0.88126000       0.25748100       0.26118300
    68  O          0.61874000       0.74251900       0.76118300
    69  H          0.40536700       0.17775200       0.76792900
    70  H          0.09463300       0.82224800       0.26792900
    71  H          0.90536700       0.32224800       0.23207100
    72  H          0.59463300       0.67775200       0.73207100
    73  C          0.21849000       0.27430000       0.36330000
    74  C          0.28151000       0.72570000       0.86330000
    75  C          0.71849000       0.22570000       0.63670000
    76  C          0.78151000       0.77430000       0.13670000
    77  C          0.34081100       0.12330000       0.40230000
    78  C          0.15918900       0.87670000       0.90230000
    79  C          0.84081100       0.37670000       0.59770000
    80  C          0.65918900       0.62330000       0.09770000
    81  H          0.38302800       0.07161800       0.41479800
    82  H          0.11697200       0.92838200       0.91479800
    83  H          0.88302800       0.42838200       0.58520200
    84  H          0.61697200       0.57161800       0.08520200
    85  C          0.26971000       0.29930000       0.54830000
    86  C          0.23029000       0.70070000       0.04830000
    87  C          0.76971000       0.20070000       0.45170000
    88  C          0.73029000       0.79930000       0.95170000
    89  H          0.26273500       0.36424200       0.65626300
    90  H          0.23726500       0.63575800       0.15626300
    91  H          0.76273500       0.13575800       0.34373700
    92  H          0.73726500       0.86424200       0.84373700
    93  C          0.29061000       0.10030000       0.22530000
    94  C          0.20939000       0.89970000       0.72530000
    95  C          0.79061000       0.39970000       0.77470000
    96  C          0.70939000       0.60030000       0.27470000
    97  H          0.29818400       0.03365300       0.11896100
    98  H          0.20181600       0.96634700       0.61896100
    99  H          0.79818400       0.46634700       0.88103900
   100  H          0.70181600       0.53365300       0.38103900
   101  C          0.33061000       0.21730000       0.55630000
   102  C          0.16939000       0.78270000       0.05630000
   103  C          0.83061000       0.28270000       0.44370000
   104  C          0.66939000       0.71730000       0.94370000
   105  C          0.22879000       0.17830000       0.20830000
   106  C          0.27121000       0.82170000       0.70830000
   107  C          0.72879000       0.32170000       0.79170000
   108  C          0.77121000       0.67830000       0.29170000
   109  H          0.19386100       0.16365100       0.08967000
   110  H          0.30613900       0.83634900       0.58967000
   111  H          0.69386100       0.33634900       0.91033000
   112  H          0.80613900       0.66365100       0.41033000
