data_RESORA03
_symmetry_space_group_name_H-M    'P1'
_symmetry_Int_Tables_number       1
loop_
_symmetry_equiv_pos_site_id
_symmetry_equiv_pos_as_xyz
1 x,y,z
_cell_length_a                   10.46964
_cell_length_b                   9.40623
_cell_length_c                   5.66572
_cell_angle_alpha                90.0
_cell_angle_beta                 90.0
_cell_angle_gamma                90.0
loop_
_atom_site_label
_atom_site_type_symbol
_atom_site_fract_x
_atom_site_fract_y
_atom_site_fract_z
     1  O          0.53272900       0.83909100       0.19422000
     2  O          0.46727100       0.16090900       0.69422000
     3  O          0.96727100       0.33909100       0.69422000
     4  O          0.03272900       0.66090900       0.19422000
     5  H          0.46991900       0.88620000       0.24950000
     6  H          0.53008100       0.11380000       0.74950000
     7  H          0.03008100       0.38620000       0.74950000
     8  H          0.96991900       0.61380000       0.24950000
     9  O          0.84462900       0.49394100       0.36322000
    10  O          0.15537100       0.50605900       0.86322000
    11  O          0.65537100      -0.00605900       0.86322000
    12  O          0.34462900       0.00605900       0.36322000
    13  H          0.87081800       0.43420000       0.47040000
    14  H          0.12918200       0.56580000       0.97040000
    15  H          0.62918200       0.93420000       0.97040000
    16  H          0.37081800       0.06580000       0.47040000
    17  C          0.51563130       0.71028140       0.56283000
    18  C          0.48436870       0.28971860       0.06283000
    19  C          0.98436870       0.21028140       0.06283000
    20  C          0.01563130       0.78971860       0.56283000
    21  H          0.43711700       0.76041700       0.60540000
    22  H          0.56288300       0.23958300       0.10540000
    23  H          0.06288300       0.26041700       0.10540000
    24  H          0.93711700       0.73958300       0.60540000
    25  C          0.56623130       0.60741150       0.71143000
    26  C          0.43376870       0.39258850       0.21143000
    27  C          0.93376870       0.10741150       0.21143000
    28  C          0.06623130       0.89258850       0.71143000
    29  H          0.52391600       0.59031800       0.86340000
    30  H          0.47608400       0.40968200       0.36340000
    31  H          0.97608400       0.09031800       0.36340000
    32  H          0.02391600       0.90968200       0.86340000
    33  C          0.67671140       0.53286150       0.65183000
    34  C          0.32328860       0.46713850       0.15183000
    35  C          0.82328860       0.03286150       0.15183000
    36  C          0.17671140       0.96713850       0.65183000
    37  H          0.71121600       0.45851800       0.75840000
    38  H          0.28878400       0.54148200       0.25840000
    39  H          0.78878400       0.95851800       0.25840000
    40  H          0.21121600       0.04148200       0.75840000
    41  C          0.73526120       0.56283140       0.43693000
    42  C          0.26473880       0.43716860       0.93693000
    43  C          0.76473880       0.06283140       0.93693000
    44  C          0.23526120       0.93716860       0.43693000
    45  C          0.68676130       0.66535140       0.28533000
    46  C          0.31323870       0.33464860       0.78533000
    47  C          0.81323870       0.16535140       0.78533000
    48  C          0.18676130       0.83464860       0.28533000
    49  H          0.72751600       0.68291800       0.13740000
    50  H          0.27248400       0.31708200       0.63740000
    51  H          0.77248400       0.18291800       0.63740000
    52  H          0.22751600       0.81708200       0.13740000
    53  C          0.57722130       0.73875130       0.35013000
    54  C          0.42277870       0.26124870       0.85013000
    55  C          0.92277870       0.23875130       0.85013000
    56  C          0.07722130       0.76124870       0.35013000
