data_REZQOF03
_symmetry_space_group_name_H-M    'P1'
_symmetry_Int_Tables_number       1
loop_
_symmetry_equiv_pos_site_id
_symmetry_equiv_pos_as_xyz
1 x,y,z
_cell_length_a                   8.06454
_cell_length_b                   23.985312
_cell_length_c                   15.74608
_cell_angle_alpha                90.0
_cell_angle_beta                 104.395512
_cell_angle_gamma                90.0
loop_
_atom_site_label
_atom_site_type_symbol
_atom_site_fract_x
_atom_site_fract_y
_atom_site_fract_z
     1  I          0.46352700       0.07629200       0.13156200
     2  I          0.53647300       0.57629200       0.36843800
     3  I          0.53647300       0.92370800       0.86843800
     4  I          0.46352700       0.42370800       0.63156200
     5  N          0.88196000       0.17449130       0.40912000
     6  N          0.11804000       0.67449130       0.09088000
     7  N          0.11804000       0.82550870       0.59088000
     8  N          0.88196000       0.32550870       0.90912000
     9  C          0.88644000       0.24292000       0.29753000
    10  C          0.11356000       0.74292000       0.20247000
    11  C          0.11356000       0.75708000       0.70247000
    12  C          0.88644000       0.25708000       0.79753000
    13  H          0.85060000       0.25310000       0.23880000
    14  H          0.14940000       0.75310000       0.26120000
    15  H          0.14940000       0.74690000       0.76120000
    16  H          0.85060000       0.24690000       0.73880000
    17  C         -0.00746000       0.27688190       0.35763000
    18  C          0.00746000       0.77688190       0.14237000
    19  C          0.00746000       0.72311810       0.64237000
    20  C         -0.00746000       0.22311810       0.85763000
    21  H          0.02850000       0.31090000       0.34010000
    22  H          0.97150000       0.81090000       0.15990000
    23  H          0.97150000       0.68910000       0.65990000
    24  H          0.02850000       0.18910000       0.84010000
    25  C          0.04595000       0.26018160       0.44493000
    26  C          0.95405000       0.76018160       0.05507000
    27  C          0.95405000       0.73981840       0.55507000
    28  C          0.04595000       0.23981840       0.94493000
    29  C         -0.01245000       0.20830160       0.46882000
    30  C          0.01245000       0.70830160       0.03118000
    31  C          0.01245000       0.79169840       0.53118000
    32  C         -0.01245000       0.29169840       0.96882000
    33  C          0.83375000       0.19208170       0.32733000
    34  C          0.16625000       0.69208170       0.17267000
    35  C          0.16625000       0.80791830       0.67267000
    36  C          0.83375000       0.30791830       0.82733000
    37  C          0.71884000       0.15651190       0.26563000
    38  C          0.28116000       0.65651190       0.23437000
    39  C          0.28116000       0.84348810       0.73437000
    40  C          0.71884000       0.34348810       0.76563000
    41  C          0.62155000       0.12747180       0.21553000
    42  C          0.37845000       0.62747180       0.28447000
    43  C          0.37845000       0.87252820       0.78447000
    44  C          0.62155000       0.37252820       0.71553000
    45  C          0.03907000       0.19062000       0.55653000
    46  C          0.96093000       0.69062000       0.94347000
    47  C          0.96093000       0.80938000       0.44347000
    48  C          0.03907000       0.30938000       0.05653000
    49  H         -0.00010000       0.15690000       0.57320000
    50  H          0.00010000       0.65690000       0.92680000
    51  H          0.00010000       0.84310000       0.42680000
    52  H         -0.00010000       0.34310000       0.07320000
    53  C          0.14748000       0.22352000       0.61723000
    54  C          0.85252000       0.72352000       0.88277000
    55  C          0.85252000       0.77648000       0.38277000
    56  C          0.14748000       0.27648000       0.11723000
    57  H          0.18220000       0.21150000       0.67510000
    58  H          0.81780000       0.71150000       0.82490000
    59  H          0.81780000       0.78850000       0.32490000
    60  H          0.18220000       0.28850000       0.17510000
    61  C          0.20597000       0.27402000       0.59393000
    62  C          0.79403000       0.77402000       0.90607000
    63  C          0.79403000       0.72598000       0.40607000
    64  C          0.20597000       0.22598000       0.09393000
    65  H          0.27830000       0.29580000       0.63630000
    66  H          0.72170000       0.79580000       0.86370000
    67  H          0.72170000       0.70420000       0.36370000
    68  H          0.27830000       0.20420000       0.13630000
    69  C          0.15916000       0.29206190       0.51053000
    70  C          0.84084000       0.79206190       0.98947000
    71  C          0.84084000       0.70793810       0.48947000
    72  C          0.15916000       0.20793810       0.01053000
    73  H          0.20140000       0.32580000       0.49560000
    74  H          0.79860000       0.82580000       0.00440000
    75  H          0.79860000       0.67420000       0.50440000
    76  H          0.20140000       0.17420000      -0.00440000
    77  I          0.21352400       0.93889800       0.54865200
    78  I          0.78647600       0.43889800       0.95134800
    79  I          0.78647600       0.06110200       0.45134800
    80  I          0.21352400       0.56110200       0.04865200
    81  N          0.45044000       0.14743130       0.51922000
    82  N          0.54956000       0.64743130       0.98078000
    83  N          0.54956000       0.85256870       0.48078000
    84  N          0.45044000       0.35256870       0.01922000
    85  C          0.35245000       0.11330170       0.46223000
    86  C          0.64755000       0.61330170       0.03777000
    87  C          0.64755000       0.88669830       0.53777000
    88  C          0.35245000       0.38669830       0.96223000
    89  C          0.28996000       0.12602000       0.37263000
    90  C          0.71004000       0.62602000       0.12737000
    91  C          0.71004000       0.87398000       0.62737000
    92  C          0.28996000       0.37398000       0.87263000
    93  H          0.22110000       0.10090000       0.33460000
    94  H          0.77890000       0.60090000       0.16540000
    95  H          0.77890000       0.89910000       0.66540000
    96  H          0.22110000       0.39910000       0.83460000
    97  C          0.33217000       0.17582000       0.34303000
    98  C          0.66783000       0.67582000       0.15697000
    99  C          0.66783000       0.82418000       0.65697000
   100  C          0.33217000       0.32418000       0.84303000
   101  H          0.29160000       0.18500000       0.28410000
   102  H          0.70840000       0.68500000       0.21590000
   103  H          0.70840000       0.81500000       0.71590000
   104  H          0.29160000       0.31500000       0.78410000
   105  C          0.43576000       0.21320180       0.40013000
   106  C          0.56424000       0.71320180       0.09987000
   107  C          0.56424000       0.78679820       0.59987000
   108  C          0.43576000       0.28679820       0.90013000
   109  C          0.49235000       0.19754160       0.48902000
   110  C          0.50765000       0.69754160       0.01098000
   111  C          0.50765000       0.80245840       0.51098000
   112  C          0.49235000       0.30245840       0.98902000
   113  C          0.30976000       0.05994180       0.49313000
   114  C          0.69024000       0.55994180       0.00687000
   115  C          0.69024000       0.94005820       0.50687000
   116  C          0.30976000       0.44005820      -0.00687000
   117  C          0.27286000       0.01543180       0.51383000
   118  C          0.72714000       0.51543180       0.98617000
   119  C          0.72714000       0.98456820       0.48617000
   120  C          0.27286000       0.48456820       0.01383000
   121  C          0.59486000       0.23462000       0.54843000
   122  C          0.40514000       0.73462000       0.95157000
   123  C          0.40514000       0.76538000       0.45157000
   124  C          0.59486000       0.26538000       0.04843000
   125  H          0.63160000       0.22460000       0.60710000
   126  H          0.36840000       0.72460000       0.89290000
   127  H          0.36840000       0.77540000       0.39290000
   128  H          0.63160000       0.27540000       0.10710000
   129  C          0.64167000       0.28492000       0.52184000
   130  C          0.35833000       0.78492000       0.97816000
   131  C          0.35833000       0.71508000       0.47816000
   132  C          0.64167000       0.21508000       0.02184000
   133  H          0.70920000       0.30910000       0.56210000
   134  H          0.29080000       0.80910000       0.93790000
   135  H          0.29080000       0.69090000       0.43790000
   136  H          0.70920000       0.19090000       0.06210000
   137  C          0.58748000       0.29992000       0.43374000
   138  C          0.41252000       0.79992000       0.06626000
   139  C          0.41252000       0.70008000       0.56626000
   140  C          0.58748000       0.20008000       0.93374000
   141  H          0.62080000       0.33400000       0.41530000
   142  H          0.37920000       0.83400000       0.08470000
   143  H          0.37920000       0.66600000       0.58470000
   144  H          0.62080000       0.16600000       0.91530000
   145  C          0.48647000       0.26532000       0.37444000
   146  C          0.51353000       0.76532000       0.12556000
   147  C          0.51353000       0.73468000       0.62556000
   148  C          0.48647000       0.23468000       0.87444000
   149  H          0.45040000       0.27620000       0.31600000
   150  H          0.54960000       0.77620000       0.18400000
   151  H          0.54960000       0.72380000       0.68400000
   152  H          0.45040000       0.22380000       0.81600000
   153  I          0.38916400       0.60319200       0.80724200
   154  I          0.61083600       0.10319200       0.69275800
   155  I          0.61083600       0.39680800       0.19275800
   156  I          0.38916400       0.89680800       0.30724200
   157  N          0.24974000       0.49408130       0.49733190
   158  N          0.75026000       0.99408130       0.00266810
   159  N          0.75026000       0.50591870       0.50266810
   160  N          0.24974000       0.00591870      -0.00266810
   161  C          0.20265000       0.47953150       0.41062000
   162  C          0.79735000       0.97953150       0.08938000
   163  C          0.79735000       0.52046850       0.58938000
   164  C          0.20265000       0.02046850       0.91062000
   165  C          0.09915000       0.51416180       0.34652000
   166  C          0.90085000       0.01416180       0.15348000
   167  C          0.90085000       0.48583820       0.65348000
   168  C          0.09915000       0.98583820       0.84652000
   169  C          0.04476000       0.56482000       0.37373000
   170  C          0.95524000       0.06482000       0.12627000
   171  C          0.95524000       0.43518000       0.62627000
   172  C          0.04476000       0.93518000       0.87373000
   173  H          0.97720000       0.58870000       0.33270000
   174  H          0.02280000       0.08870000       0.16730000
   175  H          0.02280000       0.41130000       0.66730000
   176  H          0.97720000       0.91130000       0.83270000
   177  C          0.08965000       0.57947190       0.45933000
   178  C          0.91035000       0.07947190       0.04067000
   179  C          0.91035000       0.42052810       0.54067000
   180  C          0.08965000       0.92052810       0.95933000
   181  H          0.05230000       0.61290000       0.47800000
   182  H          0.94770000       0.11290000       0.02200000
   183  H          0.94770000       0.38710000       0.52200000
   184  H          0.05230000       0.88710000       0.97800000
   185  C          0.19515000       0.54245160       0.52012000
   186  C          0.80485000       0.04245160       0.97988000
   187  C          0.80485000       0.45754840       0.47988000
   188  C          0.19515000       0.95754840       0.02012000
   189  C          0.24986000       0.55878170       0.61113000
   190  C          0.75014000       0.05878170       0.88887000
   191  C          0.75014000       0.44121830       0.38887000
   192  C          0.24986000       0.94121830       0.11113000
   193  C          0.29456000       0.57497180       0.68393000
   194  C          0.70544000       0.07497180       0.81607000
   195  C          0.70544000       0.42502820       0.31607000
   196  C          0.29456000       0.92502820       0.18393000
   197  C          0.26446000       0.42909180       0.38463000
   198  C          0.73554000       0.92909180       0.11537000
   199  C          0.73554000       0.57090820       0.61537000
   200  C          0.26446000       0.07090820       0.88463000
   201  H          0.33350000       0.40600000       0.42620000
   202  H          0.66650000       0.90600000       0.07380000
   203  H          0.66650000       0.59400000       0.57380000
   204  H          0.33350000       0.09400000       0.92620000
   205  C          0.22278000       0.41412000       0.29803000
   206  C          0.77722000       0.91412000       0.20197000
   207  C          0.77722000       0.58588000       0.70197000
   208  C          0.22278000       0.08588000       0.79803000
   209  H          0.26300000       0.38050000       0.28130000
   210  H          0.73700000       0.88050000       0.21870000
   211  H          0.73700000       0.61950000       0.71870000
   212  H          0.26300000       0.11950000       0.78130000
   213  C          0.12178000       0.44802000       0.23503000
   214  C          0.87822000       0.94802000       0.26497000
   215  C          0.87822000       0.55198000       0.76497000
   216  C          0.12178000       0.05198000       0.73503000
   217  H          0.09550000       0.43700000       0.17660000
   218  H          0.90450000       0.93700000       0.32340000
   219  H          0.90450000       0.56300000       0.82340000
   220  H          0.09550000       0.06300000       0.67660000
   221  C          0.06056000       0.49682000       0.25723000
   222  C          0.93944000      -0.00318000       0.24277000
   223  C          0.93944000       0.50318000       0.74277000
   224  C          0.06056000       0.00318000       0.75723000
   225  H         -0.00710000       0.51920000       0.21390000
   226  H          0.00710000       0.01920000       0.28610000
   227  H          0.00710000       0.48080000       0.78610000
   228  H         -0.00710000       0.98080000       0.71390000
