data_REZQOF
_symmetry_space_group_name_H-M    'P1'
_symmetry_Int_Tables_number       1
loop_
_symmetry_equiv_pos_site_id
_symmetry_equiv_pos_as_xyz
1 x,y,z
_cell_length_a                   4.16182
_cell_length_b                   24.060215
_cell_length_c                   14.45569
_cell_angle_alpha                90.0
_cell_angle_beta                 92.72401
_cell_angle_gamma                90.0
loop_
_atom_site_label
_atom_site_type_symbol
_atom_site_fract_x
_atom_site_fract_y
_atom_site_fract_z
     1  I          0.49061130       0.39703200       0.18405400
     2  I          0.50938870       0.89703200       0.81594600
     3  N          0.87851800       0.59683000       0.19224000
     4  N          0.12148200       0.09683000       0.80776000
     5  C          0.30220000       0.47203000       0.20836000
     6  C          0.69780000       0.97203000       0.79164000
     7  C          0.18720000       0.51533000       0.22766000
     8  C          0.81280000       0.01533000       0.77234000
     9  C          0.05120000       0.56813000       0.25365000
    10  C          0.94880000       0.06813000       0.74635000
    11  C          0.11730000       0.58774000       0.34456000
    12  C          0.88270000       0.08774000       0.65544000
    13  H          0.23440000       0.56600000       0.38720000
    14  H          0.76560000       0.06600000       0.61280000
    15  C          0.01130000       0.63804000       0.36887000
    16  C         -0.01130000       0.13804000       0.63113000
    17  H          0.05720000       0.65150000       0.42820000
    18  H          0.94280000       0.15150000       0.57180000
    19  C          0.82820000       0.67043000       0.30456000
    20  C          0.17180000       0.17043000       0.69544000
    21  C          0.76420000       0.64733000       0.21646000
    22  C          0.23580000       0.14733000       0.78354000
    23  C          0.57920000       0.67874000       0.15006000
    24  C          0.42080000       0.17874000       0.84994000
    25  H          0.53120000       0.66380000       0.09160000
    26  H          0.46880000       0.16380000       0.90840000
    27  C          0.47130000       0.72994000       0.17107000
    28  C          0.52870000       0.22994000       0.82893000
    29  H          0.35300000       0.75030000       0.12640000
    30  H          0.64700000       0.25030000       0.87360000
    31  C          0.53530000       0.75284000       0.26038000
    32  C          0.46470000       0.25284000       0.73962000
    33  H          0.45610000       0.78790000       0.27430000
    34  H          0.54390000       0.28790000       0.72570000
    35  C          0.70830000       0.72434000       0.32467000
    36  C          0.29170000       0.22434000       0.67533000
    37  H          0.74970000       0.73970000       0.38290000
    38  H          0.25030000       0.23970000       0.61710000
    39  I          0.14798140       0.38094200       0.87724600
    40  I          0.85201860       0.88094200       0.12275400
    41  N          0.72231700       0.27773000       0.18055000
    42  N          0.27768300       0.77773000       0.81945000
    43  C          0.01820000       0.33033000       0.97875000
    44  C         -0.01820000       0.83033000       0.02125000
    45  C          0.94720000       0.29943000       0.03746000
    46  C          0.05280000       0.79943000       0.96254000
    47  C          0.86520000       0.25903000       0.10726000
    48  C          0.13480000       0.75903000       0.89274000
    49  C          0.93930000       0.20254000       0.09296000
    50  C          0.06070000       0.70254000       0.90704000
    51  H          0.03300000       0.19110000       0.03900000
    52  H         -0.03300000       0.69110000       0.96100000
    53  C          0.87130000       0.16503000       0.15987000
    54  C          0.12870000       0.66503000       0.84013000
    55  H          0.91900000       0.12760000       0.15180000
    56  H          0.08100000       0.62760000       0.84820000
    57  C          0.72820000       0.18283000       0.24076000
    58  C          0.27180000       0.68283000       0.75924000
    59  C          0.65420000       0.24013000       0.24765000
    60  C          0.34580000       0.74013000       0.75235000
    61  C          0.50230000       0.25924000       0.32676000
    62  C          0.49770000       0.75924000       0.67324000
    63  H          0.44890000       0.29660000       0.33200000
    64  H          0.55110000       0.79660000       0.66800000
    65  C          0.43330000       0.22284000       0.39556000
    66  C          0.56670000       0.72284000       0.60444000
    67  H          0.33530000       0.23590000       0.44780000
    68  H          0.66470000       0.73590000       0.55220000
    69  C          0.50630000       0.16674000       0.38897000
    70  C          0.49370000       0.66674000       0.61103000
    71  H          0.45760000       0.14250000       0.43640000
    72  H          0.54240000       0.64250000       0.56360000
    73  C          0.65030000       0.14724000       0.31277000
    74  C          0.34970000       0.64724000       0.68723000
    75  H          0.69640000       0.10950000       0.30840000
    76  H          0.30360000       0.60950000       0.69160000
    77  N          0.33181700       0.43883000       0.70244000
    78  N          0.66818300       0.93883000       0.29756000
    79  C          0.65620000       0.52234000       0.87456000
    80  C          0.34380000       0.02234000       0.12544000
    81  C          0.59320000       0.50534000       0.79976000
    82  C          0.40680000       0.00534000       0.20024000
    83  C          0.51520000       0.48353000       0.70816000
    84  C          0.48480000       0.98353000       0.29184000
    85  C          0.63330000       0.51144000       0.63066000
    86  C          0.36670000       0.01144000       0.36934000
    87  H          0.76330000       0.54260000       0.63820000
    88  H          0.23670000       0.04260000       0.36180000
    89  C          0.55130000       0.49164000       0.54486000
    90  C          0.44870000       0.99164000       0.45514000
    91  H          0.62720000       0.50930000       0.49300000
    92  H          0.37280000       0.00930000       0.50700000
    93  C          0.35320000       0.44464000       0.53355000
    94  C          0.64680000       0.94464000       0.46645000
    95  C          0.25020000       0.41863000       0.61565000
    96  C          0.74980000       0.91863000       0.38435000
    97  C          0.05620000       0.37084000       0.60806000
    98  C          0.94380000       0.87084000       0.39194000
    99  H         -0.00970000       0.35300000       0.66100000
   100  H          0.00970000       0.85300000       0.33900000
   101  C          0.96370000       0.35034000       0.52177000
   102  C          0.03630000       0.85034000       0.47823000
   103  H          0.83310000       0.31890000       0.51690000
   104  H          0.16690000       0.81890000       0.48310000
   105  C          0.06330000       0.37605000       0.44196000
   106  C          0.93670000       0.87605000       0.55804000
   107  H          0.00270000       0.36120000       0.38420000
   108  H         -0.00270000       0.86120000       0.61580000
   109  C          0.24730000       0.42215000       0.44726000
   110  C          0.75270000       0.92215000       0.55274000
   111  H          0.30450000       0.43940000       0.39290000
   112  H          0.69550000       0.93940000       0.60710000
   113  I          0.75466140       0.54841200       0.00540400
   114  I          0.24533860       0.04841200      -0.00540400
