data_REZQOF02
_symmetry_space_group_name_H-M    'P1'
_symmetry_Int_Tables_number       1
loop_
_symmetry_equiv_pos_site_id
_symmetry_equiv_pos_as_xyz
1 x,y,z
_cell_length_a                   15.397819
_cell_length_b                   15.433218
_cell_length_c                   15.7442
_cell_angle_alpha                108.8503
_cell_angle_beta                 96.4313
_cell_angle_gamma                118.9013
loop_
_atom_site_label
_atom_site_type_symbol
_atom_site_fract_x
_atom_site_fract_y
_atom_site_fract_z
     1  I          0.06567300      -0.00217300       0.13025300
     2  I          0.93432700       0.00217300       0.86974700
     3  N          0.23554000       0.37894000       0.09844000
     4  N          0.76446000       0.62106000       0.90156000
     5  C          0.38285000       0.36276000       0.12315000
     6  C          0.61715000       0.63724000       0.87685000
     7  H          0.40960000       0.32340000       0.13440000
     8  H          0.59040000       0.67660000       0.86560000
     9  C          0.27835000       0.32695000       0.11494000
    10  C          0.72165000       0.67305000       0.88506000
    11  C          0.21065000       0.22635000       0.12255000
    12  C          0.78935000       0.77365000       0.87745000
    13  C          0.15915000       0.14315000       0.12575000
    14  C          0.84085000       0.85685000       0.87425000
    15  C          0.31288000       0.62066000       0.05566000
    16  C          0.68712000       0.37934000       0.94434000
    17  H          0.28310000       0.65670000       0.04230000
    18  H          0.71690000       0.34330000       0.95770000
    19  C          0.29845000       0.47245000       0.08784000
    20  C          0.70155000       0.52755000       0.91216000
    21  C          0.40465000       0.51445000       0.09595000
    22  C          0.59535000       0.48555000       0.90405000
    23  C          0.44395000       0.45646000       0.11425000
    24  C          0.55605000       0.54354000       0.88575000
    25  H          0.51380000       0.48200000       0.12060000
    26  H          0.48620000       0.51800000       0.87940000
    27  C          0.25356000       0.52816000       0.06775000
    28  C          0.74644000       0.47184000       0.93225000
    29  H          0.18370000       0.50150000       0.06280000
    30  H          0.81630000       0.49850000       0.93720000
    31  C          0.46316000       0.61116000       0.08306000
    32  C          0.53684000       0.38884000       0.91694000
    33  H          0.53330000       0.63980000       0.08820000
    34  H          0.46670000       0.36020000       0.91180000
    35  C          0.41858000       0.66176000       0.06326000
    36  C          0.58142000       0.33824000       0.93674000
    37  H          0.45790000       0.72450000       0.05450000
    38  H          0.54210000       0.27550000       0.94550000
    39  I          0.65738300       0.22519400       0.38894300
    40  I          0.34261700       0.77480600       0.61105700
    41  N          0.26674000       0.03444000       0.40134000
    42  N          0.73326000       0.96556000       0.59866000
    43  C          0.16785000       0.96925000       0.40354000
    44  C          0.83215000       0.03075000       0.59646000
    45  C          0.13855000       0.87855000       0.42385000
    46  C          0.86145000       0.12145000       0.57615000
    47  C          0.21516000       0.85526000       0.44196000
    48  C          0.78484000       0.14474000       0.55804000
    49  H          0.19890000       0.79580000       0.45560000
    50  H          0.80110000       0.20420000       0.54440000
    51  C          0.43705000       0.07676000       0.41355000
    52  C          0.56295000       0.92324000       0.58645000
    53  C          0.33495000       0.00935000       0.41775000
    54  C          0.66505000      -0.00935000       0.58225000
    55  C          0.52195000       0.13386000       0.40765000
    56  C          0.47805000       0.86614000       0.59235000
    57  C          0.31096000       0.91926000       0.43936000
    58  C          0.68904000       0.08074000       0.56064000
    59  H          0.36190000       0.90480000       0.45170000
    60  H          0.63810000       0.09520000       0.54830000
    61  C          0.09246000      -0.00664000       0.38545000
    62  C          0.90754000       0.00664000       0.61455000
    63  H          0.11050000       0.05280000       0.37150000
    64  H          0.88950000       0.94720000       0.62850000
    65  C          0.03606000       0.81676000       0.42646000
    66  C          0.96394000       0.18324000       0.57354000
    67  H          0.01620000       0.75750000       0.44110000
    68  H         -0.01620000       0.24250000       0.55890000
    69  C          0.96504000       0.84316000       0.40755000
    70  C          0.03496000       0.15684000       0.59245000
    71  H          0.89710000       0.80100000       0.40790000
    72  H          0.10290000       0.19900000       0.59210000
    73  C         -0.00466000       0.93317000       0.38776000
    74  C          0.00466000       0.06683000       0.61224000
    75  H          0.94770000       0.95160000       0.37590000
    76  H          0.05230000       0.04840000       0.62410000
    77  I          0.02532300       0.30088400       0.10451300
    78  I          0.97467700       0.69911600       0.89548700
    79  N          0.62944000       0.08974000       0.11434000
    80  N          0.37056000       0.91026000       0.88566000
    81  C          0.53435000       0.06105000       0.12484000
    82  C          0.46565000       0.93895000       0.87516000
    83  C          0.49915000       0.13396000       0.13935000
    84  C          0.50085000       0.86604000       0.86065000
    85  C          0.56586000       0.23546000       0.14146000
    86  C          0.43414000       0.76454000       0.85854000
    87  H          0.54420000       0.28340000       0.14840000
    88  H          0.45580000       0.71660000       0.85160000
    89  C          0.68995000       0.18826000       0.11935000
    90  C          0.31005000       0.81174000       0.88065000
    91  C          0.40006000       0.09987000       0.15076000
    92  C          0.59994000       0.90013000       0.84924000
    93  H          0.37610000       0.14600000       0.15980000
    94  H          0.62390000       0.85400000       0.84020000
    95  C          0.66286000       0.26646000       0.13346000
    96  C          0.33714000       0.73354000       0.86654000
    97  H          0.70890000       0.33550000       0.13710000
    98  H          0.29110000       0.66450000       0.86290000
    99  C          0.79475000       0.22105000       0.11235000
   100  C          0.20525000       0.77895000       0.88765000
   101  C          0.87895000       0.25266000       0.10905000
   102  C          0.12105000       0.74734000       0.89095000
   103  C          0.46836000       0.95874000       0.12456000
   104  C          0.53164000       0.04126000       0.87544000
   105  H          0.48940000       0.91020000       0.11540000
   106  H          0.51060000       0.08980000       0.88460000
   107  C          0.33997000      -0.00048000       0.14847000
   108  C          0.66003000       0.00048000       0.85153000
   109  H          0.27390000       0.97670000       0.15460000
   110  H          0.72610000       0.02330000       0.84540000
   111  C          0.37497000       0.92993000       0.13717000
   112  C          0.62503000       0.07007000       0.86283000
   113  H          0.33310000       0.86260000       0.13830000
   114  H          0.66690000       0.13740000       0.86170000
   115  I          0.33423300       0.44665400       0.63372300
   116  I          0.66576700       0.55334600       0.36627700
   117  N          0.13944000       0.65754000       0.64154000
   118  N          0.86056000       0.34246000       0.35846000
   119  C          0.10055000       0.55515000       0.62694000
   120  C          0.89945000       0.44485000       0.37306000
   121  C          0.07214000       0.69045000       0.64104000
   122  C          0.92786000       0.30955000       0.35896000
   123  C          0.96375000       0.61975000       0.62274000
   124  C          0.03625000       0.38025000       0.37726000
   125  C          0.89924000       0.66177000       0.62386000
   126  C          0.10076000       0.33823000       0.37614000
   127  H          0.82770000       0.61490000       0.61090000
   128  H          0.17230000       0.38510000       0.38910000
   129  C          0.92545000       0.51006000       0.60515000
   130  C          0.07455000       0.48994000       0.39485000
   131  H          0.85420000       0.46030000       0.59130000
   132  H          0.14580000       0.53970000       0.40870000
   133  C          0.23095000       0.49175000       0.63025000
   134  C          0.76905000       0.50825000       0.36975000
   135  C          0.17335000       0.52155000       0.62955000
   136  C          0.82665000       0.47845000       0.37045000
   137  C         -0.00705000       0.47635000       0.60855000
   138  C          0.00705000       0.52365000       0.39145000
   139  H          0.96940000       0.40480000       0.59910000
   140  H          0.03060000       0.59520000       0.40090000
   141  C          0.93933000       0.76597000       0.64296000
   142  C          0.06067000       0.23403000       0.35704000
   143  H          0.89560000       0.79140000       0.64280000
   144  H          0.10440000       0.20860000       0.35720000
   145  C          0.11156000       0.80096000       0.66096000
   146  C          0.88844000       0.19904000       0.33904000
   147  H          0.18270000       0.84900000       0.67270000
   148  H          0.81730000       0.15100000       0.32730000
   149  C          0.04807000       0.83887000       0.66347000
   150  C          0.95193000       0.16113000       0.33653000
   151  H          0.07590000       0.91260000       0.67850000
   152  H          0.92410000       0.08740000       0.32150000
   153  I          0.34275400       0.24452400       0.38255300
   154  I          0.65724600       0.75547600       0.61744700
   155  N          0.52284000       0.62694000       0.35244000
   156  N          0.47716000       0.37306000       0.64756000
   157  C          0.38085000       0.38445000       0.37135000
   158  C          0.61915000       0.61555000       0.62865000
   159  C          0.40265000       0.46455000       0.36265000
   160  C          0.59735000       0.53545000       0.63735000
   161  C          0.42675000       0.56195000       0.34984000
   162  C          0.57325000       0.43805000       0.65016000
   163  C          0.54625000       0.71905000       0.34144000
   164  C          0.45375000       0.28095000       0.65856000
   165  C          0.47145000       0.74635000       0.32765000
   166  C          0.52855000       0.25365000       0.67235000
   167  C          0.64916000       0.79106000       0.34316000
   168  C          0.35084000       0.20894000       0.65684000
   169  H          0.69960000       0.77530000       0.35220000
   170  H          0.30040000       0.22470000       0.64780000
   171  C          0.37026000       0.67437000       0.32496000
   172  C          0.62974000       0.32563000       0.67504000
   173  H          0.31900000       0.68900000       0.31530000
   174  H          0.68100000       0.31100000       0.68470000
   175  C          0.34626000       0.58166000       0.33646000
   176  C          0.65374000       0.41834000       0.66354000
   177  H          0.27930000       0.53320000       0.33550000
   178  H          0.72070000       0.46680000       0.66450000
   179  C          0.50267000       0.84246000       0.31576000
   180  C          0.49733000       0.15754000       0.68424000
   181  H          0.45430000       0.86100000       0.30660000
   182  H          0.54570000       0.13900000       0.69340000
   183  C          0.60248000       0.90916000       0.31746000
   184  C          0.39752000       0.09084000       0.68254000
   185  H          0.62160000       0.97210000       0.30890000
   186  H          0.37840000       0.02790000       0.69110000
   187  C          0.67387000       0.88246000       0.33156000
   188  C          0.32613000       0.11754000       0.66844000
   189  H          0.74180000       0.92880000       0.33330000
   190  H          0.25820000       0.07120000       0.66670000
   191  I          0.28868400       0.05043400       0.89768400
   192  I          0.71131600       0.94956600       0.10231600
   193  N          0.05834000       0.21674000       0.85314000
   194  N          0.94166000       0.78326000       0.14686000
   195  C          0.02115000       0.27745000       0.83844000
   196  C          0.97885000       0.72255000       0.16156000
   197  C          0.91734000       0.24247000       0.83836000
   198  C          0.08266000       0.75753000       0.16164000
   199  H          0.87650000       0.17950000       0.84660000
   200  H          0.12350000       0.82050000       0.15340000
   201  C          0.15445000       0.24935000       0.85164000
   202  C          0.84555000       0.75065000       0.14836000
   203  C          0.19595000       0.18776000       0.86765000
   204  C          0.80405000       0.81224000       0.13235000
   205  C          0.23215000       0.13815000       0.88135000
   206  C          0.76785000       0.86185000       0.11865000
   207  C          0.07975000       0.37045000       0.82364000
   208  C          0.92025000       0.62955000       0.17636000
   209  C          0.21835000       0.34075000       0.83375000
   210  C          0.78165000       0.65925000       0.16625000
   211  H          0.28440000       0.35870000       0.83040000
   212  H          0.71560000       0.64130000       0.16960000
   213  C          0.18176000       0.40165000       0.82145000
   214  C          0.81824000       0.59835000       0.17855000
   215  H          0.22340000       0.46310000       0.81170000
   216  H          0.77660000       0.53690000       0.18830000
   217  C          0.03637000       0.42916000       0.81186000
   218  C          0.96363000       0.57084000       0.18814000
   219  H          0.07620000       0.49240000       0.80380000
   220  H          0.92380000       0.50760000       0.19620000
   221  C          0.87813000       0.30168000       0.82607000
   222  C          0.12187000       0.69832000       0.17393000
   223  H          0.81040000       0.27890000       0.82700000
   224  H          0.18960000       0.72110000       0.17300000
   225  C          0.93672000       0.39517000       0.81207000
   226  C          0.06328000       0.60483000       0.18793000
   227  H          0.90830000       0.43380000       0.80290000
   228  H          0.09170000       0.56620000       0.19710000
