data_RIFQAY01
_symmetry_space_group_name_H-M    'P1'
_symmetry_Int_Tables_number       1
loop_
_symmetry_equiv_pos_site_id
_symmetry_equiv_pos_as_xyz
1 x,y,z
_cell_length_a                   13.3106
_cell_length_b                   15.4755
_cell_length_c                   6.8643
_cell_angle_alpha                90.0
_cell_angle_beta                 101.182
_cell_angle_gamma                90.0
loop_
_atom_site_label
_atom_site_type_symbol
_atom_site_fract_x
_atom_site_fract_y
_atom_site_fract_z
     1  S          0.37470400       0.86276700       0.72763800
     2  S          0.12529600       0.36276700       0.77236200
     3  S          0.62529600       0.13723300       0.27236200
     4  S          0.87470400       0.63723300       0.22763800
     5  S          0.34702400       0.92461700       0.31821700
     6  S          0.15297600       0.42461700       0.18178300
     7  S          0.65297600       0.07538300       0.68178300
     8  S          0.84702400       0.57538300       0.81821700
     9  C          0.36370200       0.78699900       0.54280400
    10  C          0.13629800       0.28699900       0.95719600
    11  C          0.63629800       0.21300100       0.45719600
    12  C          0.86370200       0.71300100       0.04280400
    13  C          0.35160200       0.81429900       0.35760400
    14  C          0.14839800       0.31429900       0.14239600
    15  C          0.64839800       0.18570100       0.64239600
    16  C          0.85160200       0.68570100       0.85760400
    17  C          0.36210100       0.95089900       0.56760300
    18  C          0.13789900       0.45089900       0.93239700
    19  C          0.63789900       0.04910100       0.43239700
    20  C          0.86210100       0.54910100       0.06760300
    21  H          0.36741400       0.73188800       0.57672800
    22  H          0.13258600       0.23188800       0.92327200
    23  H          0.63258600       0.26811200       0.42327200
    24  H          0.86741400       0.76811200       0.07672800
    25  H          0.34231400       0.78118800       0.25472900
    26  H          0.15768600       0.28118800       0.24527100
    27  H          0.65768600       0.21881200       0.74527100
    28  H          0.84231400       0.71881200       0.75472900
    29  S          0.37163400       0.12219300       0.47228800
    30  S          0.12836600       0.62219300       0.02771200
    31  S          0.62836600       0.87780700       0.52771200
    32  S          0.87163400       0.37780700       0.97228800
    33  S          0.38076400       0.06342400       0.88037800
    34  S          0.11923600       0.56342400       0.61962200
    35  S          0.61923600       0.93657600       0.11962200
    36  S          0.88076400       0.43657600       0.38037800
    37  C          0.38790200       0.19950100       0.65770400
    38  C          0.11209800       0.69950100       0.84229600
    39  C          0.61209800       0.80049900       0.34229600
    40  C          0.88790200       0.30049900       0.15770400
    41  C          0.39180200       0.17330100       0.84070300
    42  C          0.10819800       0.67330100       0.65929700
    43  C          0.60819800       0.82669900       0.15929700
    44  C          0.89180200       0.32669900       0.34070300
    45  C          0.36640100       0.03550100       0.63150300
    46  C          0.13359900       0.53550100       0.86849700
    47  C          0.63359900       0.96449900       0.36849700
    48  C          0.86640100       0.46449900       0.13150300
    49  H          0.39041500       0.25371400       0.61653100
    50  H          0.10958500       0.75371400       0.88346900
    51  H          0.60958500       0.74628600       0.38346900
    52  H          0.89041500       0.24628600       0.11653100
    53  H          0.39711700       0.20681500       0.95163500
    54  H          0.10288300       0.70681500       0.54836500
    55  H          0.60288300       0.79318500       0.04836500
    56  H          0.89711700       0.29318500       0.45163500
    57  C          0.12770100       0.09580100       0.52360300
    58  C          0.37229900       0.59580100       0.97639700
    59  C          0.87229900       0.90419900       0.47639700
    60  C          0.62770100       0.40419900       0.02360300
    61  N          0.12410100       0.16890100       0.53740300
    62  N          0.37589900       0.66890100       0.96259700
    63  N          0.87589900       0.83109900       0.46259700
    64  N          0.62410100       0.33109900       0.03740300
    65  C          0.13860100       0.94949900       0.66090300
    66  C          0.36139900       0.44949900       0.83909700
    67  C          0.86139900       0.05050100       0.33909700
    68  C          0.63860100       0.55050100       0.16090300
    69  N          0.14620100       0.90349900       0.79390300
    70  N          0.35379900       0.40349900       0.70609700
    71  N          0.85379900       0.09650100       0.20609700
    72  N          0.64620100       0.59650100       0.29390300
    73  C          0.13160100       0.00420100       0.49400300
    74  C          0.36839900       0.50420100       0.00599700
    75  C          0.86839900      -0.00420100       0.50599700
    76  C          0.63160100       0.49579900      -0.00599700
    77  C          0.11110100       0.87999900       0.26810300
    78  C          0.38889900       0.37999900       0.23189700
    79  C          0.88889900       0.12000100       0.73189700
    80  C          0.61110100       0.62000100       0.76810300
    81  N          0.10460100       0.80659900       0.25240200
    82  N          0.39539900       0.30659900       0.24759800
    83  N          0.89539900       0.19340100       0.74759800
    84  N          0.60460100       0.69340100       0.75240200
    85  C          0.11300100       0.02900100       0.13750300
    86  C          0.38699900       0.52900100       0.36249700
    87  C          0.88699900       0.97099900       0.86249700
    88  C          0.61300100       0.47099900       0.63750300
    89  N          0.10690100       0.07810100       0.01160300
    90  N          0.39309900       0.57810100       0.48839700
    91  N          0.89309900       0.92189900      -0.01160300
    92  N          0.60690100       0.42189900       0.51160300
    93  C          0.12100100       0.97119900       0.30160300
    94  C          0.37899900       0.47119900       0.19839700
    95  C          0.87899900       0.02880100       0.69839700
    96  C          0.62100100       0.52880100       0.80160300
