data_RIFQAY
_symmetry_space_group_name_H-M    'P1'
_symmetry_Int_Tables_number       1
loop_
_symmetry_equiv_pos_site_id
_symmetry_equiv_pos_as_xyz
1 x,y,z
_cell_length_a                   15.4296
_cell_length_b                   6.6324
_cell_length_c                   14.1656
_cell_angle_alpha                90.0
_cell_angle_beta                 104.323
_cell_angle_gamma                90.0
loop_
_atom_site_label
_atom_site_type_symbol
_atom_site_fract_x
_atom_site_fract_y
_atom_site_fract_z
     1  S          0.84789000       0.15713000       0.10801000
     2  S          0.65211000       0.65713000       0.39199000
     3  S          0.15211000       0.84287000       0.89199000
     4  S          0.34789000       0.34287000       0.60801000
     5  S          0.92889000       0.76777000       0.17661000
     6  S          0.57111000       0.26777000       0.32339000
     7  S          0.07111000       0.23223000       0.82339000
     8  S          0.42889000       0.73223000       0.67661000
     9  C          0.77805000       0.96895000       0.13056000
    10  C          0.72195000       0.46895000       0.36944000
    11  C          0.22195000       0.03105000       0.86944000
    12  C          0.27805000       0.53105000       0.63056000
    13  C          0.81495000       0.79098800       0.16026000
    14  C          0.68505000       0.29098800       0.33974000
    15  C          0.18505000       0.20901200       0.83974000
    16  C          0.31495000       0.70901200       0.66026000
    17  C          0.94416000       0.01031000       0.13925000
    18  C          0.55584000       0.51031000       0.36075000
    19  C          0.05584000      -0.01031000       0.86075000
    20  C          0.44416000       0.48969000       0.63925000
    21  H          0.72196000       0.03548000       0.10774000
    22  H          0.77804000       0.53548000       0.39226000
    23  H          0.27804000       0.96452000       0.89226000
    24  H          0.22196000       0.46452000       0.60774000
    25  H          0.77816000       0.69812000       0.18544000
    26  H          0.72184000       0.19812000       0.31456000
    27  H          0.22184000       0.30188000       0.81456000
    28  H          0.27816000       0.80188000       0.68544000
    29  S          0.11961000       0.92047000       0.14741000
    30  S          0.38039000       0.42047000       0.35259000
    31  S          0.88039000       0.07953000       0.85259000
    32  S          0.61961000       0.57953000       0.64741000
    33  S          0.04431000       0.32313000       0.09782000
    34  S          0.45569000       0.82313000       0.40218000
    35  S          0.95569000       0.67687000       0.90218000
    36  S          0.54431000       0.17687000       0.59782000
    37  C          0.19015000       0.10151400       0.11887000
    38  C          0.30985000       0.60151400       0.38113000
    39  C          0.80985000       0.89848600       0.88113000
    40  C          0.69015000       0.39848600       0.61887000
    41  C          0.15606000       0.28211500       0.09547000
    42  C          0.34394000       0.78211500       0.40453000
    43  C          0.84394000       0.71788500       0.90453000
    44  C          0.65606000       0.21788500       0.59547000
    45  C          0.02754000       0.07731000       0.13285000
    46  C          0.47246000       0.57731000       0.36715000
    47  C          0.97246000       0.92269000       0.86715000
    48  C          0.52754000       0.42269000       0.63285000
    49  H          0.23964000       0.05508000       0.10024000
    50  H          0.26036000       0.55508000       0.39976000
    51  H          0.76036000       0.94492000       0.89976000
    52  H          0.73964000       0.44492000       0.60024000
    53  H          0.21464000       0.35978000       0.09634000
    54  H          0.28536000       0.85978000       0.40366000
    55  H          0.78536000       0.64022000       0.90366000
    56  H          0.71464000       0.14022000       0.59634000
    57  C          0.58944000       0.40151000       0.11185000
    58  C          0.91056000       0.90151000       0.38815000
    59  C          0.41056000       0.59849000       0.88815000
    60  C          0.08944000       0.09849000       0.61185000
    61  N          0.66264000       0.38771100       0.10835000
    62  N          0.83736000       0.88771100       0.39165000
    63  N          0.33736000       0.61228900       0.89165000
    64  N          0.16264000       0.11228900       0.60835000
    65  C          0.43864000       0.26341100       0.08655000
    66  C          0.06136000       0.76341100       0.41345000
    67  C          0.56136000       0.73658900       0.91345000
    68  C          0.93864000       0.23658900       0.58655000
    69  N          0.39004000       0.13531100       0.06085000
    70  N          0.10996000       0.63531100       0.43915000
    71  N          0.60996000       0.86468900       0.93915000
    72  N          0.89004000       0.36468900       0.56085000
    73  C          0.49904000       0.42701000       0.11755000
    74  C          0.00096000       0.92701000       0.38245000
    75  C          0.50096000       0.57299000       0.88245000
    76  C         -0.00096000       0.07299000       0.61755000
    77  C          0.37835000       0.64951100       0.13825000
    78  C          0.12165000       0.14951100       0.36175000
    79  C          0.62165000       0.35048900       0.86175000
    80  C          0.87835000       0.85048900       0.63825000
    81  N          0.30394000       0.67421100       0.13485000
    82  N          0.19606000       0.17421100       0.36515000
    83  N          0.69606000       0.32578900       0.86515000
    84  N          0.80394000       0.82578900       0.63485000
    85  C          0.53064000       0.77761100       0.16965000
    86  C          0.96936000       0.27761100       0.33035000
    87  C          0.46936000       0.22238900       0.83035000
    88  C          0.03064000       0.72238900       0.66965000
    89  N          0.58284000       0.90371000       0.19335000
    90  N          0.91716000       0.40371000       0.30665000
    91  N          0.41716000       0.09629000       0.80665000
    92  N          0.08284000       0.59629000       0.69335000
    93  C          0.47074000       0.61471100       0.14385000
    94  C          0.02926000       0.11471100       0.35615000
    95  C          0.52926000       0.38528900       0.85615000
    96  C          0.97074000       0.88528900       0.64385000
