data_RIFQAY03
_symmetry_space_group_name_H-M    'P1'
_symmetry_Int_Tables_number       1
loop_
_symmetry_equiv_pos_site_id
_symmetry_equiv_pos_as_xyz
1 x,y,z
_cell_length_a                   7.2394
_cell_length_b                   6.5504
_cell_length_c                   14.5518
_cell_angle_alpha                90.0
_cell_angle_beta                 97.9178
_cell_angle_gamma                90.0
loop_
_atom_site_label
_atom_site_type_symbol
_atom_site_fract_x
_atom_site_fract_y
_atom_site_fract_z
     1  C          0.25074000       0.33895000       0.51202000
     2  C          0.74926000       0.83895000       0.48798000
     3  H          0.20370000       0.36410000       0.44880000
     4  H          0.79630000       0.86410000       0.55120000
     5  C          0.22774000       0.15865000       0.55073190
     6  C          0.77226000       0.65865000       0.44926810
     7  H          0.16400000       0.05000000       0.51650000
     8  H          0.83600000       0.55000000       0.48350000
     9  C          0.40784000       0.37435000       0.67883190
    10  C          0.59216000       0.87435000       0.32116810
    11  C          0.50613000       0.43945000       0.76204190
    12  C          0.49387000       0.93945000       0.23795810
    13  C          0.71034000       0.63696000       0.88985190
    14  C          0.28966000       0.13696000       0.11014810
    15  H          0.77940000       0.74030000       0.92510000
    16  H          0.22060000       0.24030000       0.07490000
    17  C          0.69684000       0.44865000       0.92272000
    18  C          0.30316000       0.94865000       0.07728000
    19  H          0.75660000       0.41250000       0.98270000
    20  H          0.24340000       0.91250000       0.01730000
    21  S          0.36864900       0.52623110       0.58016500
    22  S          0.63135100       0.02623110       0.41983500
    23  S          0.31881900       0.13077120       0.66594500
    24  S          0.68118100       0.63077120       0.33405500
    25  S          0.59469100       0.68358120       0.77893500
    26  S          0.40530900       0.18358120       0.22106500
    27  S          0.56754100       0.27200110       0.85294500
    28  S          0.43245900       0.77200110       0.14705500
    29  C          0.18124000       0.51445000       0.88217190
    30  C          0.81876000       0.01445000       0.11782810
    31  C          0.09024000       0.47935000       0.78973180
    32  C          0.90976000      -0.02065000       0.21026820
    33  C          0.00944000       0.28885000       0.76497180
    34  C         -0.00944000       0.78885000       0.23502820
    35  C          0.02114000       0.12365000       0.82914190
    36  C         -0.02114000       0.62365000       0.17085810
    37  C          0.07294000       0.64265000       0.72653180
    38  C          0.92706000       0.14265000       0.27346820
    39  C          0.89656000       0.26265000       0.67789190
    40  C          0.10344000       0.76265000       0.32210810
    41  N          0.25553000       0.53414000       0.95643160
    42  N          0.74447000       0.03414000       0.04356840
    43  N          0.03083000      -0.00824000       0.88090160
    44  N          0.96917000       0.49176000       0.11909840
    45  N          0.05973000       0.76924000       0.67107160
    46  N          0.94027000       0.26924000       0.32892840
    47  N          0.80707000       0.24824000       0.60695170
    48  N          0.19293000       0.74824000       0.39304830
