data_RIFQAY02
_symmetry_space_group_name_H-M    'P1'
_symmetry_Int_Tables_number       1
loop_
_symmetry_equiv_pos_site_id
_symmetry_equiv_pos_as_xyz
1 x,y,z
_cell_length_a                   6.9624
_cell_length_b                   12.8357
_cell_length_c                   15.2798
_cell_angle_alpha                87.2628
_cell_angle_beta                 80.1398
_cell_angle_gamma                74.3547
loop_
_atom_site_label
_atom_site_type_symbol
_atom_site_fract_x
_atom_site_fract_y
_atom_site_fract_z
     1  C          0.71171200       0.90072000       0.59996000
     2  C          0.28828800       0.09928000       0.40004000
     3  C          0.73251200       0.94362000       0.51365000
     4  C          0.26748800       0.05638000       0.48635000
     5  C          0.68091200       0.05798000       0.50016000
     6  C          0.31908800       0.94202000       0.49984000
     7  C          0.61101300       0.12988000       0.57396000
     8  C          0.38898700       0.87012000       0.42604000
     9  C          0.83121300       0.87253000       0.44125000
    10  C          0.16878700       0.12747000       0.55875000
    11  C          0.73031300       0.10128000       0.41456000
    12  C          0.26968700       0.89872000       0.58544000
    13  N          0.69491200       0.86673000       0.67095000
    14  N          0.30508800       0.13327000       0.32905000
    15  N          0.55711200       0.18767000       0.63395000
    16  N          0.44288800       0.81233000       0.36605000
    17  N          0.90971200       0.81513000       0.38145000
    18  N          0.09028800       0.18487000       0.61855000
    19  N          0.77061200       0.13227000       0.34405000
    20  N          0.22938800       0.86773000       0.65595000
    21  C          0.08611200       0.54099000       0.72216000
    22  C          0.91388800       0.45901000       0.27784000
    23  H          0.06040000       0.52560000       0.78380000
    24  H          0.93960000       0.47440000       0.21620000
    25  C          0.04841100       0.64338000       0.69155000
    26  C          0.95158900       0.35662000       0.30845000
    27  H         -0.00530000       0.70360000       0.73030000
    28  H          0.00530000       0.29640000       0.26970000
    29  C          0.19311200       0.52318000       0.55455000
    30  C          0.80688800       0.47682000       0.44545000
    31  C          0.26861200       0.48478000       0.46805000
    32  C          0.73138800       0.51522000       0.53195000
    33  C          0.43201300       0.36719000       0.32945000
    34  C          0.56798700       0.63281000       0.67055000
    35  H          0.49480000       0.30790000       0.29020000
    36  H          0.50520000       0.69210000       0.70980000
    37  C          0.39131200       0.46949000       0.30145000
    38  C          0.60868800       0.53051000       0.69855000
    39  H          0.42360000       0.48620000       0.24030000
    40  H          0.57640000       0.51380000       0.75970000
    41  S          0.18293000       0.43882000       0.64490150
    42  S          0.81707000       0.56118000       0.35509850
    43  S          0.10233000       0.65912000       0.57870140
    44  S          0.89767000       0.34088000       0.42129860
    45  S          0.36193000       0.34942000       0.44310140
    46  S          0.63807000       0.65058000       0.55689860
    47  S          0.27863000       0.57022000       0.37845140
    48  S          0.72137000       0.42978000       0.62154860
    49  C          0.75141200       0.37028000       0.06926000
    50  C          0.24858800       0.62972000       0.93074000
    51  C          0.73611200       0.44568000      -0.00485000
    52  C          0.26388800       0.55432000       0.00485000
    53  C          0.68111100       0.55648000       0.00885000
    54  C          0.31888900       0.44352000      -0.00885000
    55  C          0.63261300       0.60068000       0.09696000
    56  C          0.36738700       0.39932000       0.90304000
    57  C          0.81151200       0.40118000       0.90754000
    58  C          0.18848800       0.59882000       0.09246000
    59  C          0.69671200       0.62958000       0.93705000
    60  C          0.30328800       0.37042000       0.06295000
    61  N          0.75661200       0.31538000       0.12925000
    62  N          0.24338800       0.68462000       0.87075000
    63  N          0.59591100       0.63537000       0.16825000
    64  N          0.40408900       0.36463000       0.83175000
    65  N          0.87161100       0.36757000       0.83565000
    66  N          0.12838900       0.63243000       0.16435000
    67  N          0.71081200       0.68657000       0.87805000
    68  N          0.28918800       0.31343000       0.12195000
    69  C          0.23341200       0.86718000       0.18815000
    70  C          0.76658800       0.13282000       0.81185000
    71  H          0.26190000       0.80650000       0.22660000
    72  H          0.73810000       0.19350000       0.77340000
    73  C          0.14241300       0.96628000       0.22006000
    74  C          0.85758700       0.03372000       0.77994000
    75  H          0.09590000       0.97870000       0.28170000
    76  H          0.90410000       0.02130000       0.71830000
    77  C          0.22091200      -0.01072000       0.05116000
    78  C          0.77908800       0.01072000       0.94884000
    79  C          0.24271200       0.02858000       0.96524000
    80  C          0.75728800       0.97142000       0.03476000
    81  C          0.32981200       0.04458000       0.79704000
    82  C          0.67018800       0.95542000       0.20296000
    83  H          0.37770000       0.02950000       0.73580000
    84  H          0.62230000       0.97050000       0.26420000
    85  C          0.24641200       0.14469000       0.82604000
    86  C          0.75358800       0.85531000       0.17396000
    87  H          0.23030000       0.20430000       0.78620000
    88  H          0.76970000       0.79570000       0.21380000
    89  S          0.29753000       0.85302000       0.07459160
    90  S          0.70247000       0.14698000       0.92540840
    91  S          0.11263000       0.07112000       0.14359150
    92  S          0.88737000       0.92888000       0.85640850
    93  S          0.34803000       0.94282000       0.87466840
    94  S          0.65197000       0.05718000       0.12533160
    95  S          0.16703000       0.16302000       0.94019860
    96  S          0.83297000       0.83698000       0.05980140
