data_RIGHUK01
_symmetry_space_group_name_H-M    'P1'
_symmetry_Int_Tables_number       1
loop_
_symmetry_equiv_pos_site_id
_symmetry_equiv_pos_as_xyz
1 x,y,z
_cell_length_a                   11.3383
_cell_length_b                   15.3904
_cell_length_c                   7.6392
_cell_angle_alpha                90.0
_cell_angle_beta                 106.042
_cell_angle_gamma                90.0
loop_
_atom_site_label
_atom_site_type_symbol
_atom_site_fract_x
_atom_site_fract_y
_atom_site_fract_z
     1  C          0.32193000       0.03242000       0.58894000
     2  C          0.67807000       0.53242000       0.91106000
     3  C          0.67807000       0.96758000       0.41106000
     4  C          0.32193000       0.46758000       0.08894000
     5  C          0.28063000       0.11842000       0.58954000
     6  C          0.71937000       0.61842000       0.91046000
     7  C          0.71937000       0.88158000       0.41046000
     8  C          0.28063000       0.38158000       0.08954000
     9  C          0.34803000       0.18302000       0.69705000
    10  C          0.65197000       0.68302000       0.80295000
    11  C          0.65197000       0.81698000       0.30295000
    12  C          0.34803000       0.31698000       0.19705000
    13  C          0.46003000       0.16062000       0.81125000
    14  C          0.53997000       0.66062000       0.68875000
    15  C          0.53997000       0.83938000       0.18875000
    16  C          0.46003000       0.33938000       0.31125000
    17  C          0.50753000       0.07723000       0.81795000
    18  C          0.49247000       0.57723000       0.68205000
    19  C          0.49247000       0.92277000       0.18205000
    20  C          0.50753000       0.42277000       0.31795000
    21  C          0.43793000       0.01582000       0.70545000
    22  C          0.56207000       0.51582000       0.79455000
    23  C          0.56207000       0.98418000       0.29455000
    24  C          0.43793000       0.48418000       0.20545000
    25  N          0.15953000       0.14402000       0.47584000
    26  N          0.84047000       0.64402000       0.02416000
    27  N          0.84047000       0.85598000       0.52416000
    28  N          0.15953000       0.35598000       0.97584000
    29  O          0.07352000       0.09462000       0.46233000
    30  O          0.92648000       0.59462000       0.03767000
    31  O          0.92648000       0.90538000       0.53767000
    32  O          0.07352000       0.40538000       0.96233000
    33  O          0.15123000       0.21522000       0.40134000
    34  O          0.84877000       0.71522000       0.09866000
    35  O          0.84877000       0.78478000       0.59866000
    36  O          0.15123000       0.28478000       0.90134000
    37  N          0.53153000       0.22782000       0.92895000
    38  N          0.46847000       0.72782000       0.57105000
    39  N          0.46847000       0.77218000       0.07105000
    40  N          0.53153000       0.27218000       0.42895000
    41  O          0.50073000       0.30322000       0.89974000
    42  O          0.49927000       0.80322000       0.60026000
    43  O          0.49927000       0.69678000       0.10026000
    44  O          0.50073000       0.19678000       0.39974000
    45  O          0.61813000       0.20582000       0.05435000
    46  O          0.38187000       0.70582000       0.44565000
    47  O          0.38187000       0.79418000       0.94565000
    48  O          0.61813000       0.29418000       0.55435000
    49  C          0.25063000       0.95968000       0.47745000
    50  C          0.74937000       0.45968000       0.02255000
    51  C          0.74937000       0.04032000       0.52255000
    52  C          0.25063000       0.54032000       0.97745000
    53  C          0.21263000       0.97168000       0.27414000
    54  C          0.78737000       0.47168000       0.22586000
    55  C          0.78737000       0.02832000       0.72586000
    56  C          0.21263000       0.52832000       0.77414000
    57  C          0.15183000       0.90508000       0.16085000
    58  C          0.84817000       0.40508000       0.33915000
    59  C          0.84817000       0.09492000       0.83915000
    60  C          0.15183000       0.59492000       0.66085000
    61  C          0.11783000       0.92027000       0.97605000
    62  C          0.88217000       0.42027000       0.52395000
    63  C          0.88217000       0.07973000       0.02395000
    64  C          0.11783000       0.57973000       0.47605000
    65  C          0.14393000      -0.00073000       0.90735000
    66  C          0.85607000       0.49927000       0.59265000
    67  C          0.85607000       0.00073000       0.09265000
    68  C          0.14393000       0.50073000       0.40735000
    69  C          0.20443000       0.05943000       0.03005000
    70  C          0.79557000       0.55943000       0.46995000
    71  C          0.79557000       0.94057000       0.96995000
    72  C          0.20443000       0.44057000       0.53005000
    73  N          0.24002000       0.04802000       0.20924000
    74  N          0.75998000       0.54802000       0.29076000
    75  N          0.75998000       0.95198000       0.79076000
    76  N          0.24002000       0.45198000       0.70924000
    77  C          0.11993000       0.82117000       0.23646000
    78  C          0.88007000       0.32117000       0.26354000
    79  C          0.88007000       0.17883000       0.76354000
    80  C          0.11993000       0.67883000       0.73646000
    81  H          0.31790000       0.24080000       0.69200000
    82  H          0.68210000       0.74080000       0.80800000
    83  H          0.68210000       0.75920000       0.30800000
    84  H          0.31790000       0.25920000       0.19200000
    85  H          0.58550000       0.06310000       0.89750000
    86  H          0.41450000       0.56310000       0.60250000
    87  H          0.41450000       0.93690000       0.10250000
    88  H          0.58550000       0.43690000       0.39750000
    89  H          0.47040000       0.95890000       0.70690000
    90  H          0.52960000       0.45890000       0.79310000
    91  H          0.52960000       0.04110000       0.29310000
    92  H          0.47040000       0.54110000       0.20690000
    93  H          0.07610000       0.87650000       0.89500000
    94  H          0.92390000       0.37650000       0.60500000
    95  H          0.92390000       0.12350000       0.10500000
    96  H          0.07610000       0.62350000       0.39500000
    97  H          0.12050000       0.01080000       0.78030000
    98  H          0.87950000       0.51080000       0.71970000
    99  H          0.87950000       0.98920000       0.21970000
   100  H          0.12050000       0.48920000       0.28030000
   101  H          0.22250000       0.11360000      -0.01600000
   102  H          0.77750000       0.61360000       0.51600000
   103  H          0.77750000       0.88640000       0.01600000
   104  H          0.22250000       0.38640000       0.48400000
   105  H          0.15030000       0.82200000       0.36530000
   106  H          0.84970000       0.32200000       0.13470000
   107  H          0.84970000       0.17800000       0.63470000
   108  H          0.15030000       0.67800000       0.86530000
   109  H          0.03330000       0.81440000       0.20270000
   110  H          0.96670000       0.31440000       0.29730000
   111  H          0.96670000       0.18560000       0.79730000
   112  H          0.03330000       0.68560000       0.70270000
   113  H          0.15590000       0.77430000       0.18890000
   114  H          0.84410000       0.27430000       0.31110000
   115  H          0.84410000       0.22570000       0.81110000
   116  H          0.15590000       0.72570000       0.68890000
   117  H          0.30610000       0.90430000       0.50730000
   118  H          0.69390000       0.40430000      -0.00730000
   119  H          0.69390000       0.09570000       0.49270000
   120  H          0.30610000       0.59570000       0.00730000
   121  H          0.16350000       0.95050000       0.51100000
   122  H          0.83650000       0.45050000      -0.01100000
   123  H          0.83650000       0.04950000       0.48900000
   124  H          0.16350000       0.54950000       0.01100000
