data_RIGHUK
_symmetry_space_group_name_H-M    'P1'
_symmetry_Int_Tables_number       1
loop_
_symmetry_equiv_pos_site_id
_symmetry_equiv_pos_as_xyz
1 x,y,z
_cell_length_a                   11.6173
_cell_length_b                   15.3557
_cell_length_c                   7.6413
_cell_angle_alpha                90.0
_cell_angle_beta                 105.973
_cell_angle_gamma                90.0
loop_
_atom_site_label
_atom_site_type_symbol
_atom_site_fract_x
_atom_site_fract_y
_atom_site_fract_z
     1  C          0.33646000       0.09135000       0.53268000
     2  C          0.66354000       0.59135000       0.96732000
     3  C          0.66354000       0.90865000       0.46732000
     4  C          0.33646000       0.40865000       0.03268000
     5  C          0.30536000       0.17605000       0.47578000
     6  C          0.69464000       0.67605000       0.02422000
     7  C          0.69464000       0.82395000       0.52422000
     8  C          0.30536000       0.32395000       0.97578000
     9  C          0.38087000       0.24556000       0.52841100
    10  C          0.61913000       0.74556000       0.97158900
    11  C          0.61913000       0.75444000       0.47158900
    12  C          0.38087000       0.25444000       0.02841100
    13  C          0.49167000       0.22995000       0.64199000
    14  C          0.50833000       0.72995000       0.85801000
    15  C          0.50833000       0.77005000       0.35801000
    16  C          0.49167000       0.27005000       0.14199000
    17  C          0.52928000       0.14816000       0.70071100
    18  C          0.47072000       0.64816000       0.79928900
    19  C          0.47072000       0.85184000       0.29928900
    20  C          0.52928000       0.35184000       0.20071100
    21  C          0.45177000       0.08005000       0.64499000
    22  C          0.54823000       0.58005000       0.85501000
    23  C          0.54823000       0.91995000       0.35501000
    24  C          0.45177000       0.41995000       0.14499000
    25  C          0.25568000       0.01315000       0.48301000
    26  C          0.74432000       0.51315000       0.01699000
    27  C          0.74432000       0.98685000       0.51699000
    28  C          0.25568000       0.48685000      -0.01699000
    29  C          0.21786000       0.98936000       0.28169000
    30  C          0.78214000       0.48936000       0.21831000
    31  C          0.78214000       0.01064000       0.71831000
    32  C          0.21786000       0.51064000       0.78169000
    33  C          0.13856000       0.92085000       0.22031100
    34  C          0.86144000       0.42085000       0.27968900
    35  C          0.86144000       0.07915000       0.77968900
    36  C          0.13856000       0.57915000       0.72031100
    37  C          0.11058000       0.89984000       0.04041200
    38  C          0.88942000       0.39984000       0.45958800
    39  C          0.88942000       0.10016000       0.95958800
    40  C          0.11058000       0.60016000       0.54041200
    41  C          0.16179000       0.94473000       0.92608700
    42  C          0.83821000       0.44473000       0.57391300
    43  C          0.83821000       0.05527000       0.07391300
    44  C          0.16179000       0.55527000       0.42608700
    45  C          0.23779000       0.01136000      -0.00201200
    46  C          0.76221000       0.51136000       0.50201200
    47  C          0.76221000       0.98864000       0.00201200
    48  C          0.23779000       0.48864000       0.49798800
    49  H          0.02526600       0.83365200       0.29999600
    50  H          0.97473400       0.33365200       0.20000400
    51  H          0.97473400       0.16634800       0.70000400
    52  H          0.02526600       0.66634800       0.79999600
    53  H          0.04479100       0.91163400       0.41114000
    54  H          0.95520900       0.41163400       0.08886000
    55  H          0.95520900       0.08836600       0.58886000
    56  H          0.04479100       0.58836600       0.91114000
    57  H          0.13758500       0.86003600       0.46713000
    58  H          0.86241500       0.36003600       0.03287000
    59  H          0.86241500       0.13996400       0.53287000
    60  H          0.13758500       0.63996400       0.96713000
    61  C          0.08791100       0.87061000       0.34831600
    62  C          0.91208900       0.37061000       0.15168400
    63  C          0.91208900       0.12939000       0.65168400
    64  C          0.08791100       0.62939000       0.84831600
    65  N          0.18516000       0.19705000       0.35679000
    66  N          0.81484000       0.69705000       0.14321000
    67  N          0.81484000       0.80295000       0.64321000
    68  N          0.18516000       0.30295000       0.85679000
    69  N          0.57418000       0.30416000       0.70671200
    70  N          0.42582000       0.80416000       0.79328800
    71  N          0.42582000       0.69584000       0.29328800
    72  N          0.57418000       0.19584000       0.20671200
    73  N          0.26785000       0.03354000       0.17368000
    74  N          0.73215000       0.53354000       0.32632000
    75  N          0.73215000       0.96646000       0.82632000
    76  N          0.26785000       0.46646000       0.67368000
    77  O          0.66538000       0.29075000       0.82291200
    78  O          0.33462000       0.79075000       0.67708800
    79  O          0.33462000       0.70925000       0.17708800
    80  O          0.66538000       0.20925000       0.32291200
    81  O          0.54277000       0.37554000       0.63961000
    82  O          0.45723000       0.87554000       0.86039000
    83  O          0.45723000       0.62446000       0.36039000
    84  O          0.54277000       0.12446000       0.13961000
    85  O          0.10185000       0.15234000       0.36528000
    86  O          0.89815000       0.65234000       0.13472000
    87  O          0.89815000       0.84766000       0.63472000
    88  O          0.10185000       0.34766000       0.86528000
    89  O          0.17635000       0.25905000       0.25731000
    90  O          0.82365000       0.75905000       0.24269000
    91  O          0.82365000       0.74095000       0.74269000
    92  O          0.17635000       0.24095000       0.75731000
    93  H          0.35755900       0.29794700       0.47628900
    94  H          0.64244100       0.79794700       0.02371100
    95  H          0.64244100       0.70205300       0.52371100
    96  H          0.35755900       0.20205300       0.97628900
    97  H          0.60245900       0.13774100       0.77518600
    98  H          0.39754100       0.63774100       0.72481400
    99  H          0.39754100       0.86225900       0.22481400
   100  H          0.60245900       0.36225900       0.27518600
   101  H          0.47645500       0.02264200       0.69628200
   102  H          0.52354500       0.52264200       0.80371800
   103  H          0.52354500       0.97735800       0.30371800
   104  H          0.47645500       0.47735800       0.19628200
   105  H          0.29845700       0.95975600       0.54008600
   106  H          0.70154300       0.45975600       0.95991400
   107  H          0.70154300       0.04024400       0.45991400
   108  H          0.29845700       0.54024400       0.04008600
   109  H          0.17937000       0.02354800       0.52499800
   110  H          0.82063000       0.52354800       0.97500200
   111  H          0.82063000       0.97645200       0.47500200
   112  H          0.17937000       0.47645200       0.02499800
   113  H          0.05976300       0.84775200      -0.01509400
   114  H          0.94023700       0.34775200       0.51509400
   115  H          0.94023700       0.15224800       0.01509400
   116  H          0.05976300       0.65224800       0.48490600
   117  H          0.13756600       0.93165000       0.79289000
   118  H          0.86243400       0.43165000       0.70711000
   119  H          0.86243400       0.06835000       0.20711000
   120  H          0.13756600       0.56835000       0.29289000
   121  H          0.28477700       0.04205800       0.92588000
   122  H          0.71522300       0.54205800       0.57412000
   123  H          0.71522300       0.95794200       0.07412000
   124  H          0.28477700       0.45794200       0.42588000
