data_RIGHUK04
_symmetry_space_group_name_H-M    'P1'
_symmetry_Int_Tables_number       1
loop_
_symmetry_equiv_pos_site_id
_symmetry_equiv_pos_as_xyz
1 x,y,z
_cell_length_a                   23.7566
_cell_length_b                   7.1752
_cell_length_c                   15.0784
_cell_angle_alpha                90.0
_cell_angle_beta                 102.393
_cell_angle_gamma                90.0
loop_
_atom_site_label
_atom_site_type_symbol
_atom_site_fract_x
_atom_site_fract_y
_atom_site_fract_z
     1  O          0.17014000       0.52321300       0.31166000
     2  O          0.17014000       0.47678700       0.81166000
     3  O          0.67014000       0.02321300       0.31166000
     4  O          0.67014000       0.97678700       0.81166000
     5  O          0.25104000       0.44261700       0.39856000
     6  O          0.25104000       0.55738300       0.89856000
     7  O          0.75104000       0.94261700       0.39856000
     8  O          0.75104000       0.05738300       0.89856000
     9  O          0.41883000       0.33641200       0.28715000
    10  O          0.41883000       0.66358800       0.78715000
    11  O          0.91883000       0.83641200       0.28715000
    12  O          0.91883000       0.16358800       0.78715000
    13  O          0.41333000       0.29491300       0.14426000
    14  O          0.41333000       0.70508700       0.64426000
    15  O          0.91333000       0.79491300       0.14426000
    16  O          0.91333000       0.20508700       0.64426000
    17  N          0.14064000       0.10351300       0.20037000
    18  N          0.14064000       0.89648700       0.70037000
    19  N          0.64064000       0.60351300       0.20037000
    20  N          0.64064000       0.39648700       0.70037000
    21  N          0.21974000       0.46431500       0.32467000
    22  N          0.21974000       0.53568500       0.82467000
    23  N          0.71974000       0.96431500       0.32467000
    24  N          0.71974000       0.03568500       0.82467000
    25  N          0.39014000       0.32441300       0.20828000
    26  N          0.39014000       0.67558700       0.70828000
    27  N          0.89014000       0.82441300       0.20828000
    28  N          0.89014000       0.17558700       0.70828000
    29  C          0.20964000       0.38851600       0.15968000
    30  C          0.20964000       0.61148400       0.65968000
    31  C          0.70964000       0.88851600       0.15968000
    32  C          0.70964000       0.11148400       0.65968000
    33  C          0.24525000       0.40941500       0.24538000
    34  C          0.24525000       0.59058500       0.74538000
    35  C          0.74525000       0.90941500       0.24538000
    36  C          0.74525000       0.09058500       0.74538000
    37  C          0.30385000       0.38881700       0.26459000
    38  C          0.30385000       0.61118300       0.76459000
    39  C          0.80385000       0.88881700       0.26459000
    40  C          0.80385000       0.11118300       0.76459000
    41  C          0.32914000       0.34611600       0.19168000
    42  C          0.32914000       0.65388400       0.69168000
    43  C          0.82914000       0.84611600       0.19168000
    44  C          0.82914000       0.15388400       0.69168000
    45  C          0.29755000       0.32791700       0.10748000
    46  C          0.29755000       0.67208300       0.60748000
    47  C          0.79755000       0.82791700       0.10748000
    48  C          0.79755000       0.17208300       0.60748000
    49  C          0.23805000       0.34920000       0.08898000
    50  C          0.23805000       0.65080000       0.58898000
    51  C          0.73805000       0.84920000       0.08898000
    52  C          0.73805000       0.15080000       0.58898000
    53  C          0.14425000       0.40520000       0.13351100
    54  C          0.14425000       0.59480000       0.63351100
    55  C          0.64425000       0.90520000       0.13351100
    56  C          0.64425000       0.09480000       0.63351100
    57  C          0.11204000       0.25511700       0.17467000
    58  C          0.11204000       0.74488300       0.67467000
    59  C          0.61204000       0.75511700       0.17467000
    60  C          0.61204000       0.24488300       0.67467000
    61  C          0.05394000       0.28721500       0.17887000
    62  C          0.05394000       0.71278500       0.67887000
    63  C          0.55394000       0.78721500       0.17887000
    64  C          0.55394000       0.21278500       0.67887000
    65  C          0.02725000       0.13920000       0.21007000
    66  C          0.02725000       0.86080000       0.71007000
    67  C          0.52725000       0.63920000       0.21007000
    68  C          0.52725000       0.36080000       0.71007000
    69  C          0.05505000       0.97198100       0.23689000
    70  C          0.05505000       0.02801900       0.73689000
    71  C          0.55505000       0.47198100       0.23689000
    72  C          0.55505000       0.52801900       0.73689000
    73  C          0.11295000       0.96428300       0.23381000
    74  C          0.11295000       0.03571700       0.73381000
    75  C          0.61295000       0.46428300       0.23381000
    76  C          0.61295000       0.53571700       0.73381000
    77  C          0.02345000       0.46951900       0.15228000
    78  C          0.02345000       0.53048100       0.65228000
    79  C          0.52345000       0.96951900       0.15228000
    80  C          0.52345000       0.03048100       0.65228000
    81  H          0.04920000       0.55450000       0.13190000
    82  H          0.04920000       0.44550000       0.63190000
    83  H          0.54920000       0.05450000       0.13190000
    84  H          0.54920000       0.94550000       0.63190000
    85  H          0.01130000       0.52160000       0.20370000
    86  H          0.01130000       0.47840000       0.70370000
    87  H          0.51130000       0.02160000       0.20370000
    88  H          0.51130000       0.97840000       0.70370000
    89  H          0.99030000       0.44840000       0.10410000
    90  H          0.99030000       0.55160000       0.60410000
    91  H          0.49030000       0.94840000       0.10410000
    92  H          0.49030000       0.05160000       0.60410000
    93  H          0.98660000       0.15113000       0.21360000
    94  H          0.98660000       0.84887000       0.71360000
    95  H          0.48660000       0.65113000       0.21360000
    96  H          0.48660000       0.34887000       0.71360000
    97  H          0.03750000       0.86583000       0.23190000
    98  H          0.03750000       0.13417000       0.73190000
    99  H          0.53750000       0.36583000       0.23190000
   100  H          0.53750000       0.63417000       0.73190000
   101  H          0.13640000       0.85588000       0.22660000
   102  H          0.13640000       0.14412000       0.72660000
   103  H          0.63640000       0.35588000       0.22660000
   104  H          0.63640000       0.64412000       0.72660000
   105  H          0.12840000       0.42215000       0.06180000
   106  H          0.12840000       0.57785000       0.56180000
   107  H          0.62840000       0.92215000       0.06180000
   108  H          0.62840000       0.07785000       0.56180000
   109  H          0.12940000       0.51014000       0.14070000
   110  H          0.12940000       0.48986000       0.64070000
   111  H          0.62940000       0.01014000       0.14070000
   112  H          0.62940000      -0.01014000       0.64070000
   113  H          0.33840000       0.38412000       0.32860000
   114  H          0.33840000       0.61588000       0.82860000
   115  H          0.83840000       0.88412000       0.32860000
   116  H          0.83840000       0.11588000       0.82860000
   117  H          0.31230000       0.32912000       0.04960000
   118  H          0.31230000       0.67088000       0.54960000
   119  H          0.81230000       0.82912000       0.04960000
   120  H          0.81230000       0.17088000       0.54960000
   121  H          0.22140000       0.37316000       0.03980000
   122  H          0.22140000       0.62684000       0.53980000
   123  H          0.72140000       0.87316000       0.03980000
   124  H          0.72140000       0.12684000       0.53980000
   125  O          0.87837000       0.07081200       0.44536000
   126  O          0.87837000       0.92918800       0.94536000
   127  O          0.37837000       0.57081200       0.44536000
   128  O          0.37837000       0.42918800       0.94536000
   129  O          0.94286000       0.87008500       0.50306000
   130  O          0.94286000       0.12991500       0.00306000
   131  O          0.44286000       0.37008500       0.50306000
   132  O          0.44286000       0.62991500       0.00306000
   133  O          0.13405000       0.91780000       0.46969000
   134  O          0.13405000       0.08220000       0.96969000
   135  O          0.63405000       0.41780000       0.46969000
   136  O          0.63405000       0.58220000       0.96969000
   137  O          0.17174000       0.19720000       0.48109000
   138  O          0.17174000       0.80280000       0.98109000
   139  O          0.67174000       0.69720000       0.48109000
   140  O          0.67174000       0.30280000       0.98109000
   141  N          0.89356000       0.33401300       0.24586000
   142  N          0.89356000       0.66598700       0.74586000
   143  N          0.39356000       0.83401300       0.24586000
   144  N          0.39356000       0.16598700       0.74586000
   145  N          0.92716000       0.01771700       0.46847000
   146  N          0.92716000      -0.01771700       0.96847000
   147  N          0.42716000       0.51771700       0.46847000
   148  N          0.42716000       0.48228300       0.96847000
   149  N          0.13076000       0.09230000       0.46919000
   150  N          0.13076000       0.90770000       0.96919000
   151  N          0.63076000       0.59230000       0.46919000
   152  N          0.63076000       0.40770000       0.96919000
   153  C          0.96276000       0.32741800       0.41887000
   154  C          0.96276000       0.67258200       0.91887000
   155  C          0.46276000       0.82741800       0.41887000
   156  C          0.46276000       0.17258200       0.91887000
   157  C          0.97305000       0.14691900       0.44997000
   158  C          0.97305000       0.85308100       0.94997000
   159  C          0.47305000       0.64691900       0.44997000
   160  C          0.47305000       0.35308100       0.94997000
   161  C          0.02735000       0.06520000       0.46728000
   162  C          0.02735000       0.93480000       0.96728000
   163  C          0.52735000       0.56520000       0.46728000
   164  C          0.52735000       0.43480000       0.96728000
   165  C          0.07254000       0.17120000       0.45137000
   166  C          0.07254000       0.82880000       0.95137000
   167  C          0.57254000       0.67120000       0.45137000
   168  C          0.57254000       0.32880000       0.95137000
   169  C          0.06446000       0.35020000       0.42031000
   170  C          0.06446000       0.64980000       0.92031000
   171  C          0.56446000       0.85020000       0.42031000
   172  C          0.56446000       0.14980000       0.92031000
   173  C          0.00926000       0.42720000       0.40339000
   174  C          0.00926000       0.57280000       0.90339000
   175  C          0.50926000       0.92720000       0.40339000
   176  C          0.50926000       0.07280000       0.90339000
   177  C          0.90604000       0.42320000       0.40309000
   178  C          0.90604000       0.57680000       0.90309000
   179  C          0.40604000       0.92320000       0.40309000
   180  C          0.40604000       0.07680000       0.90309000
   181  C          0.86585000       0.38591400       0.31168000
   182  C          0.86585000       0.61408600       0.81168000
   183  C          0.36585000       0.88591400       0.31168000
   184  C          0.36585000       0.11408600       0.81168000
   185  C          0.80756000       0.41121500       0.29698000
   186  C          0.80756000       0.58878500       0.79698000
   187  C          0.30756000       0.91121500       0.29698000
   188  C          0.30756000       0.08878500       0.79698000
   189  C          0.77515000       0.38771600       0.20969000
   190  C          0.77515000       0.61228400       0.70969000
   191  C          0.27515000       0.88771600       0.20969000
   192  C          0.27515000       0.11228400       0.70969000
   193  C          0.80185000       0.33281700       0.14039000
   194  C          0.80185000       0.66718300       0.64039000
   195  C          0.30185000       0.83281700       0.14039000
   196  C          0.30185000       0.16718300       0.64039000
   197  C          0.86125000       0.30721700       0.16379000
   198  C          0.86125000       0.69278300       0.66379000
   199  C          0.36125000       0.80721700       0.16379000
   200  C          0.36125000       0.19278300       0.66379000
   201  C          0.77904000       0.46820000       0.37341000
   202  C          0.77904000       0.53180000       0.87341000
   203  C          0.27904000       0.96820000       0.37341000
   204  C          0.27904000       0.03180000       0.87341000
   205  H          0.73830000       0.47830000       0.35080000
   206  H          0.73830000       0.52170000       0.85080000
   207  H          0.23830000       0.97830000       0.35080000
   208  H          0.23830000       0.02170000       0.85080000
   209  H          0.79430000       0.58560000       0.39760000
   210  H          0.79430000       0.41440000       0.89760000
   211  H          0.29430000       0.08560000       0.39760000
   212  H          0.29430000       0.91440000       0.89760000
   213  H          0.78670000       0.37510000       0.42040000
   214  H          0.78670000       0.62490000       0.92040000
   215  H          0.28670000       0.87510000       0.42040000
   216  H          0.28670000       0.12490000       0.92040000
   217  H          0.73050000       0.40515000       0.19970000
   218  H          0.73050000       0.59485000       0.69970000
   219  H          0.23050000       0.90515000       0.19970000
   220  H          0.23050000       0.09485000       0.69970000
   221  H          0.77760000       0.29614000       0.08070000
   222  H          0.77760000       0.70386000       0.58070000
   223  H          0.27760000       0.79614000       0.08070000
   224  H          0.27760000       0.20386000       0.58070000
   225  H          0.87660000       0.24114000       0.10770000
   226  H          0.87660000       0.75886000       0.60770000
   227  H          0.37660000       0.74114000       0.10770000
   228  H          0.37660000       0.25886000       0.60770000
   229  H          0.88160000       0.39212000       0.43960000
   230  H          0.88160000       0.60788000       0.93960000
   231  H          0.38160000       0.89212000       0.43960000
   232  H          0.38160000       0.10788000       0.93960000
   233  H          0.91360000       0.55414000       0.43160000
   234  H          0.91360000       0.44586000       0.93160000
   235  H          0.41360000       0.05414000       0.43160000
   236  H          0.41360000       0.94586000       0.93160000
   237  H          0.03930000       0.93389000       0.48650000
   238  H          0.03930000       0.06611000       0.98650000
   239  H          0.53930000       0.43389000       0.48650000
   240  H          0.53930000       0.56611000       0.98650000
   241  H          0.08650000       0.42615000       0.41990000
   242  H          0.08650000       0.57385000       0.91990000
   243  H          0.58650000       0.92615000       0.41990000
   244  H          0.58650000       0.07385000       0.91990000
   245  H          0.00740000       0.54614000       0.38370000
   246  H          0.00740000       0.45386000       0.88370000
   247  H          0.50740000       0.04614000       0.38370000
   248  H          0.50740000       0.95386000       0.88370000
