data_RUGSIW04
_symmetry_space_group_name_H-M    'P1'
_symmetry_Int_Tables_number       1
loop_
_symmetry_equiv_pos_site_id
_symmetry_equiv_pos_as_xyz
1 x,y,z
_cell_length_a                   6.35424
_cell_length_b                   7.66246
_cell_length_c                   49.2313
_cell_angle_alpha                90.0
_cell_angle_beta                 90.0
_cell_angle_gamma                90.0
loop_
_atom_site_label
_atom_site_type_symbol
_atom_site_fract_x
_atom_site_fract_y
_atom_site_fract_z
     1  C          0.61313000       0.49032000       0.06730300
     2  C          0.88687000       0.50968000       0.56730300
     3  C          0.38687000      -0.00968000       0.43269700
     4  C          0.11313000       0.00968000       0.93269700
     5  C          0.38687000       0.50968000       0.93269700
     6  C          0.11313000       0.49032000       0.43269700
     7  C          0.61313000       0.00968000       0.56730300
     8  C          0.88687000      -0.00968000       0.06730300
     9  C          0.78123000       0.53353000       0.05093400
    10  C          0.71877000       0.46647000       0.55093400
    11  C          0.21877000       0.03353000       0.44906600
    12  C          0.28123000       0.96647000       0.94906600
    13  C          0.21877000       0.46647000       0.94906600
    14  C          0.28123000       0.53353000       0.44906600
    15  C          0.78123000       0.96647000       0.55093400
    16  C          0.71877000       0.03353000       0.05093400
    17  H          0.92030000       0.50110000       0.05590000
    18  H          0.57970000       0.49890000       0.55590000
    19  H          0.07970000       0.00110000       0.44410000
    20  H          0.42030000      -0.00110000       0.94410000
    21  H          0.07970000       0.49890000       0.94410000
    22  H          0.42030000       0.50110000       0.44410000
    23  H          0.92030000      -0.00110000       0.55590000
    24  H          0.57970000       0.00110000       0.05590000
    25  C          0.74413000       0.62483000       0.02714400
    26  C          0.75587000       0.37517000       0.52714400
    27  C          0.25587000       0.12483000       0.47285600
    28  C          0.24413000       0.87517000       0.97285600
    29  C          0.25587000       0.37517000       0.97285600
    30  C          0.24413000       0.62483000       0.47285600
    31  C          0.74413000       0.87517000       0.52714400
    32  C          0.75587000       0.12483000       0.02714400
    33  H          0.86110000       0.65240000       0.01590000
    34  H          0.63890000       0.34760000       0.51590000
    35  H          0.13890000       0.15240000       0.48410000
    36  H          0.36110000       0.84760000       0.98410000
    37  H          0.13890000       0.34760000       0.98410000
    38  H          0.36110000       0.65240000       0.48410000
    39  H          0.86110000       0.84760000       0.51590000
    40  H          0.63890000       0.15240000       0.01590000
    41  C          0.39483000       0.63443000       0.03517400
    42  C          0.10517000       0.36557000       0.53517400
    43  C          0.60517000       0.13443000       0.46482600
    44  C          0.89483000       0.86557000       0.96482600
    45  C          0.60517000       0.36557000       0.96482600
    46  C          0.89483000       0.63443000       0.46482600
    47  C          0.39483000       0.86557000       0.53517400
    48  C          0.10517000       0.13443000       0.03517400
    49  H          0.25780000       0.67050000       0.02990000
    50  H          0.24220000       0.32950000       0.52990000
    51  H          0.74220000       0.17050000       0.47010000
    52  H          0.75780000       0.82950000       0.97010000
    53  H          0.74220000       0.32950000       0.97010000
    54  H          0.75780000       0.67050000       0.47010000
    55  H          0.25780000       0.82950000       0.52990000
    56  H          0.24220000       0.17050000       0.02990000
    57  C          0.41503000       0.54173000       0.05915400
    58  C          0.08497000       0.45827000       0.55915400
    59  C          0.58497000       0.04173000       0.44084600
    60  C          0.91503000       0.95827000       0.94084600
    61  C          0.58497000       0.45827000       0.94084600
    62  C          0.91503000       0.54173000       0.44084600
    63  C          0.41503000       0.95827000       0.55915400
    64  C          0.08497000       0.04173000       0.05915400
    65  H          0.29480000       0.51400000       0.06980000
    66  H          0.20520000       0.48600000       0.56980000
    67  H          0.70520000       0.01400000       0.43020000
    68  H          0.79480000      -0.01400000       0.93020000
    69  H          0.70520000       0.48600000       0.93020000
    70  H          0.79480000       0.51400000       0.43020000
    71  H          0.29480000      -0.01400000       0.56980000
    72  H          0.20520000       0.01400000       0.06980000
    73  C          0.63653000       0.38152000       0.09240300
    74  C          0.86347000       0.61848000       0.59240300
    75  C          0.36347000       0.88152000       0.40759700
    76  C          0.13653000       0.11848000       0.90759700
    77  C          0.36347000       0.61848000       0.90759700
    78  C          0.13653000       0.38152000       0.40759700
    79  C          0.63653000       0.11848000       0.59240300
    80  C          0.86347000       0.88152000       0.09240300
    81  C          0.16903000       0.47933000       0.13692400
    82  C          0.33097000       0.52067000       0.63692400
    83  C          0.83097000       0.97933000       0.36307600
    84  C          0.66903000       0.02067000       0.86307600
    85  C          0.83097000       0.52067000       0.86307600
    86  C          0.66903000       0.47933000       0.36307600
    87  C          0.16903000       0.02067000       0.63692400
    88  C          0.33097000       0.97933000       0.13692400
    89  H          0.18520000       0.46530000       0.11720000
    90  H          0.31480000       0.53470000       0.61720000
    91  H          0.81480000       0.96530000       0.38280000
    92  H          0.68520000       0.03470000       0.88280000
    93  H          0.81480000       0.53470000       0.88280000
    94  H          0.68520000       0.46530000       0.38280000
    95  H          0.18520000       0.03470000       0.61720000
    96  H          0.31480000       0.96530000       0.11720000
    97  H          0.29890000       0.44310000       0.14600000
    98  H          0.20110000       0.55690000       0.64600000
    99  H          0.70110000       0.94310000       0.35400000
   100  H          0.79890000       0.05690000       0.85400000
   101  H          0.70110000       0.55690000       0.85400000
   102  H          0.79890000       0.44310000       0.35400000
   103  H          0.29890000       0.05690000       0.64600000
   104  H          0.20110000       0.94310000       0.14600000
   105  H          0.14010000       0.60200000       0.14110000
   106  H          0.35990000       0.39800000       0.64110000
   107  H          0.85990000       0.10200000       0.35890000
   108  H          0.64010000       0.89800000       0.85890000
   109  H          0.85990000       0.39800000       0.85890000
   110  H          0.64010000       0.60200000       0.35890000
   111  H          0.14010000       0.89800000       0.64110000
   112  H          0.35990000       0.10200000       0.14110000
   113  C         -0.00957000       0.36902000       0.14661300
   114  C          0.50957000       0.63098000       0.64661300
   115  C          0.00957000       0.86902000       0.35338700
   116  C          0.49043000       0.13098000       0.85338700
   117  C          0.00957000       0.63098000       0.85338700
   118  C          0.49043000       0.36902000       0.35338700
   119  C         -0.00957000       0.13098000       0.64661300
   120  C          0.50957000       0.86902000       0.14661300
   121  C         -0.00187000       0.29162000       0.17429400
   122  C          0.50187000       0.70838000       0.67429400
   123  C          0.00187000       0.79162000       0.32570600
   124  C          0.49813000       0.20838000       0.82570600
   125  C          0.00187000       0.70838000       0.82570600
   126  C          0.49813000       0.29162000       0.32570600
   127  C         -0.00187000       0.20838000       0.67429400
   128  C          0.50187000       0.79162000       0.17429400
   129  C          0.85753000       0.16303000       0.18210400
   130  C          0.64247000       0.83697000       0.68210400
   131  C          0.14247000       0.66303000       0.31789600
   132  C          0.35753000       0.33697000       0.81789600
   133  C          0.14247000       0.83697000       0.81789600
   134  C          0.35753000       0.16303000       0.31789600
   135  C          0.85753000       0.33697000       0.68210400
   136  C          0.64247000       0.66303000       0.18210400
   137  H          0.75740000       0.12060000       0.16940000
   138  H          0.74260000       0.87940000       0.66940000
   139  H          0.24260000       0.62060000       0.33060000
   140  H          0.25740000       0.37940000       0.83060000
   141  H          0.24260000       0.87940000       0.83060000
   142  H          0.25740000       0.12060000       0.33060000
   143  H          0.75740000       0.37940000       0.66940000
   144  H          0.74260000       0.62060000       0.16940000
   145  C          0.86053000       0.09503000       0.20819400
   146  C          0.63947000       0.90497000       0.70819400
   147  C          0.13947000       0.59503000       0.29180600
   148  C          0.36053000       0.40497000       0.79180600
   149  C          0.13947000       0.90497000       0.79180600
   150  C          0.36053000       0.09503000       0.29180600
   151  C          0.86053000       0.40497000       0.70819400
   152  C          0.63947000       0.59503000       0.20819400
   153  H          0.76410000       0.00580000       0.21310000
   154  H          0.73590000      -0.00580000       0.71310000
   155  H          0.23590000       0.50580000       0.28690000
   156  H          0.26410000       0.49420000       0.78690000
   157  H          0.23590000      -0.00580000       0.78690000
   158  H          0.26410000       0.00580000       0.28690000
   159  H          0.76410000       0.49420000       0.71310000
   160  H          0.73590000       0.50580000       0.21310000
   161  C          0.00313000       0.15683000       0.22695400
   162  C          0.49687000       0.84317000       0.72695400
   163  C         -0.00313000       0.65683000       0.27304600
   164  C          0.50313000       0.34317000       0.77304600
   165  C         -0.00313000       0.84317000       0.77304600
   166  C          0.50313000       0.15683000       0.27304600
   167  C          0.00313000       0.34317000       0.72695400
   168  C          0.49687000       0.65683000       0.22695400
   169  H          0.00480000       0.11070000       0.24490000
   170  H          0.49520000       0.88930000       0.74490000
   171  H         -0.00480000       0.61070000       0.25510000
   172  H          0.50480000       0.38930000       0.75510000
   173  H         -0.00480000       0.88930000       0.75510000
   174  H          0.50480000       0.11070000       0.25510000
   175  H          0.00480000       0.38930000       0.74490000
   176  H          0.49520000       0.61070000       0.24490000
   177  C          0.14253000       0.28523000       0.21969400
   178  C          0.35747000       0.71477000       0.71969400
   179  C          0.85747000       0.78523000       0.28030600
   180  C          0.64253000       0.21477000       0.78030600
   181  C          0.85747000       0.71477000       0.78030600
   182  C          0.64253000       0.28523000       0.28030600
   183  C          0.14253000       0.21477000       0.71969400
   184  C          0.35747000       0.78523000       0.21969400
   185  H          0.24000000       0.32880000       0.23260000
   186  H          0.26000000       0.67120000       0.73260000
   187  H          0.76000000       0.82880000       0.26740000
   188  H          0.74000000       0.17120000       0.76740000
   189  H          0.76000000       0.67120000       0.76740000
   190  H          0.74000000       0.32880000       0.26740000
   191  H          0.24000000       0.17120000       0.73260000
   192  H          0.26000000       0.82880000       0.23260000
   193  C          0.14173000       0.35173000       0.19345400
   194  C          0.35827000       0.64827000       0.69345400
   195  C          0.85827000       0.85173000       0.30654600
   196  C          0.64173000       0.14827000       0.80654600
   197  C          0.85827000       0.64827000       0.80654600
   198  C          0.64173000       0.35173000       0.30654600
   199  C          0.14173000       0.14827000       0.69345400
   200  C          0.35827000       0.85173000       0.19345400
   201  H          0.24030000       0.43930000       0.18850000
   202  H          0.25970000       0.56070000       0.68850000
   203  H          0.75970000       0.93930000       0.31150000
   204  H          0.74030000       0.06070000       0.81150000
   205  H          0.75970000       0.56070000       0.81150000
   206  H          0.74030000       0.43930000       0.31150000
   207  H          0.24030000       0.06070000       0.68850000
   208  H          0.25970000       0.93930000       0.18850000
   209  N          0.80262000       0.42182000       0.10827300
   210  N          0.69738000       0.57818000       0.60827300
   211  N          0.19738000       0.92182000       0.39172700
   212  N          0.30262000       0.07818000       0.89172700
   213  N          0.19738000       0.57818000       0.89172700
   214  N          0.30262000       0.42182000       0.39172700
   215  N          0.80262000       0.07818000       0.60827300
   216  N          0.69738000       0.92182000       0.10827300
   217  N          0.55513000       0.67592000       0.01913300
   218  N          0.94487000       0.32408000       0.51913300
   219  N          0.44487000       0.17592000       0.48086700
   220  N          0.05513000       0.82408000       0.98086700
   221  N          0.44487000       0.32408000       0.98086700
   222  N          0.05513000       0.67592000       0.48086700
   223  N          0.55513000       0.82408000       0.51913300
   224  N          0.94487000       0.17592000       0.01913300
   225  N          0.82202000       0.33732000       0.13301300
   226  N          0.67798000       0.66268000       0.63301300
   227  N          0.17798000       0.83732000       0.36698700
   228  N          0.32202000       0.16268000       0.86698700
   229  N          0.17798000       0.66268000       0.86698700
   230  N          0.32202000       0.33732000       0.36698700
   231  N          0.82202000       0.16268000       0.63301300
   232  N          0.67798000       0.83732000       0.13301300
   233  O          0.51352000       0.26217170       0.09703300
   234  O         -0.01352000       0.73782830       0.59703300
   235  O          0.48648000       0.76217170       0.40296700
   236  O          0.01352000       0.23782830       0.90296700
   237  O          0.48648000       0.73782830       0.90296700
   238  O          0.01352000       0.26217170       0.40296700
   239  O          0.51352000       0.23782830       0.59703300
   240  O         -0.01352000       0.76217170       0.09703300
   241  H          0.87530000       0.52030000       0.10614000
   242  H          0.62470000       0.47970000       0.60614000
   243  H          0.12470000       0.02030000       0.39386000
   244  H          0.37530000       0.97970000       0.89386000
   245  H          0.12470000       0.47970000       0.89386000
   246  H          0.37530000       0.52030000       0.39386000
   247  H          0.87530000       0.97970000       0.60614000
   248  H          0.62470000       0.02030000       0.10614000
