data_RUGSIW03
_symmetry_space_group_name_H-M    'P1'
_symmetry_Int_Tables_number       1
loop_
_symmetry_equiv_pos_site_id
_symmetry_equiv_pos_as_xyz
1 x,y,z
_cell_length_a                   10.21142
_cell_length_b                   30.33157
_cell_length_c                   8.23532
_cell_angle_alpha                90.0
_cell_angle_beta                 110.19301
_cell_angle_gamma                90.0
loop_
_atom_site_label
_atom_site_type_symbol
_atom_site_fract_x
_atom_site_fract_y
_atom_site_fract_z
     1  C          0.23621120       0.28524400       0.93388860
     2  C          0.76378880       0.78524400       0.56611140
     3  C          0.76378880       0.71475600       0.06611140
     4  C          0.23621120       0.21475600       0.43388860
     5  C          0.15897130       0.25398400       0.81686840
     6  C          0.84102870       0.75398400       0.68313160
     7  C          0.84102870       0.74601600       0.18313160
     8  C          0.15897130       0.24601600       0.31686840
     9  H          0.18240000       0.22360000       0.83310000
    10  H          0.81760000       0.72360000       0.66690000
    11  H          0.81760000       0.77640000       0.16690000
    12  H          0.18240000       0.27640000       0.33310000
    13  C          0.04680130       0.26801500       0.67556840
    14  C          0.95319870       0.76801500       0.82443160
    15  C          0.95319870       0.73198500       0.32443160
    16  C          0.04680130       0.23198500       0.17556840
    17  H         -0.00570000       0.24640000       0.59630000
    18  H          0.00570000       0.74640000       0.90370000
    19  H          0.00570000       0.75360000       0.40370000
    20  H         -0.00570000       0.25360000       0.09630000
    21  C          0.08232140       0.33945500       0.76054810
    22  C          0.91767860       0.83945500       0.73945190
    23  C          0.91767860       0.66054500       0.23945190
    24  C          0.08232140       0.16054500       0.26054810
    25  H          0.05590000       0.36960000       0.74170000
    26  H          0.94410000       0.86960000       0.75830000
    27  H          0.94410000       0.63040000       0.25830000
    28  H          0.05590000       0.13040000       0.24170000
    29  C          0.19493130       0.32891400       0.90653830
    30  C          0.80506870       0.82891400       0.59346170
    31  C          0.80506870       0.67108600       0.09346170
    32  C          0.19493130       0.17108600       0.40653830
    33  H          0.24280000       0.35110000      -0.01380000
    34  H          0.75720000       0.85110000       0.51380000
    35  H          0.75720000       0.64890000       0.01380000
    36  H          0.24280000       0.14890000       0.48620000
    37  C          0.35596120       0.27380400       0.09463140
    38  C          0.64403880       0.77380400       0.40536860
    39  C          0.64403880       0.72619600       0.90536860
    40  C          0.35596120       0.22619600       0.59463140
    41  C          0.62339120       0.19566400       0.22629140
    42  C          0.37660880       0.69566400       0.27370860
    43  C          0.37660880       0.80433600       0.77370860
    44  C          0.62339120       0.30433600       0.72629140
    45  C          0.72129120       0.18041400       0.39731140
    46  C          0.27870880       0.68041400       0.10268860
    47  C          0.27870880       0.81958600       0.60268860
    48  C          0.72129120       0.31958600       0.89731140
    49  C          0.72012130       0.19985400       0.55060160
    50  C          0.27987870       0.69985400       0.94939840
    51  C          0.27987870       0.80014600       0.44939840
    52  C          0.72012130       0.30014600       0.05060160
    53  H          0.65480000       0.22260000       0.54580000
    54  H          0.34520000       0.72260000       0.95420000
    55  H          0.34520000       0.77740000       0.45420000
    56  H          0.65480000       0.27740000       0.04580000
    57  C          0.81282140       0.18646400       0.70955160
    58  C          0.18717860       0.68646400       0.79044840
    59  C          0.18717860       0.81353600       0.29044840
    60  C          0.81282140       0.31353600       0.20955160
    61  H          0.81100000       0.20010000       0.81260000
    62  H          0.18900000       0.70010000       0.68740000
    63  H          0.18900000       0.79990000       0.18740000
    64  H          0.81100000       0.29990000       0.31260000
    65  C          0.90783140       0.15332400       0.71878160
    66  C          0.09216860       0.65332400       0.78121840
    67  C          0.09216860       0.84667600       0.28121840
    68  C          0.90783140       0.34667600       0.21878160
    69  H          0.97240000       0.14450000       0.82770000
    70  H          0.02760000       0.64450000       0.67230000
    71  H          0.02760000       0.85550000       0.17230000
    72  H          0.97240000       0.35550000       0.32770000
    73  C          0.90850150       0.13313500       0.56930170
    74  C          0.09149850       0.63313500       0.93069830
    75  C          0.09149850       0.86686500       0.43069830
    76  C          0.90850150       0.36686500       0.06930170
    77  H          0.97260000       0.11000000       0.57540000
    78  H          0.02740000       0.61000000       0.92460000
    79  H          0.02740000       0.89000000       0.42460000
    80  H          0.97260000       0.39000000       0.07540000
    81  C          0.81557140       0.14653400       0.40926160
    82  C          0.18442860       0.64653400       0.09073840
    83  C          0.18442860       0.85346600       0.59073840
    84  C          0.81557140       0.35346600       0.90926160
    85  H          0.81670000       0.13230000       0.30700000
    86  H          0.18330000       0.63230000       0.19300000
    87  H          0.18330000       0.86770000       0.69300000
    88  H          0.81670000       0.36770000       0.80700000
    89  C          0.64039130       0.17754500       0.06530150
    90  C          0.35960870       0.67754500       0.43469850
    91  C          0.35960870       0.82245500       0.93469850
    92  C          0.64039130       0.32245500       0.56530150
    93  H          0.60650000       0.14710000       0.04780000
    94  H          0.39350000       0.64710000       0.45220000
    95  H          0.39350000       0.85290000       0.95220000
    96  H          0.60650000       0.35290000       0.54780000
    97  H          0.73920000       0.17820000       0.07720000
    98  H          0.26080000       0.67820000       0.42280000
    99  H          0.26080000       0.82180000       0.92280000
   100  H          0.73920000       0.32180000       0.57720000
   101  H          0.58650000       0.19550000       0.96570000
   102  H          0.41350000       0.69550000       0.53430000
   103  H          0.41350000       0.80450000       0.03430000
   104  H          0.58650000       0.30450000       0.46570000
   105  N          0.43246100       0.23836300       0.08279130
   106  N          0.56753900       0.73836300       0.41720870
   107  N          0.56753900       0.76163700       0.91720870
   108  N          0.43246100       0.26163700       0.58279130
   109  N          0.00851110       0.31000400       0.64462850
   110  N         -0.00851110       0.81000400       0.85537150
   111  N         -0.00851110       0.68999600       0.35537150
   112  N          0.00851110       0.18999600       0.14462850
   113  N          0.53170100       0.22377300       0.23521120
   114  N          0.46829900       0.72377300       0.26478880
   115  N          0.46829900       0.77622700       0.76478880
   116  N          0.53170100       0.27622700       0.73521120
   117  O          0.37763900       0.29570300       0.22657110
   118  O          0.62236100       0.79570300       0.27342890
   119  O          0.62236100       0.70429700       0.77342890
   120  O          0.37763900       0.20429700       0.72657110
   121  H          0.42391600       0.22825000       0.97580000
   122  H          0.57608400       0.72825000       0.52420000
   123  H          0.57608400       0.77175000       0.02420000
   124  H          0.42391600       0.27175000       0.47580000
   125  C          0.94050120       0.96271600       0.74723150
   126  C          0.05949880       0.46271600       0.75276850
   127  C          0.05949880       0.03728400       0.25276850
   128  C          0.94050120       0.53728400       0.24723150
   129  C          0.08165130       0.95772600       0.77310170
   130  C          0.91834870       0.45772600       0.72689830
   131  C          0.91834870       0.04227400       0.22689830
   132  C          0.08165130       0.54227400       0.27310170
   133  H          0.11570000       0.96110000       0.68000000
   134  H          0.88430000       0.46110000       0.82000000
   135  H          0.88430000       0.03890000       0.32000000
   136  H          0.11570000       0.53890000       0.18000000
   137  C          0.17139130       0.94769600       0.93829170
   138  C          0.82860870       0.44769600       0.56170830
   139  C          0.82860870       0.05230400       0.06170830
   140  C          0.17139130       0.55230400       0.43829170
   141  H          0.26800000       0.94480000       0.95600000
   142  H          0.73200000       0.44480000       0.54400000
   143  H          0.73200000       0.05520000       0.04400000
   144  H          0.26800000       0.55520000       0.45600000
   145  C         -0.00696870       0.94480600       0.04482160
   146  C          0.00696870       0.44480600       0.45517840
   147  C          0.00696870       0.05519400       0.95517840
   148  C         -0.00696870       0.55519400       0.54482160
   149  H          0.96100000       0.93940000       0.13840000
   150  H          0.03900000       0.43940000       0.36160000
   151  H          0.03900000       0.06060000       0.86160000
   152  H          0.96100000       0.56060000       0.63840000
   153  C          0.89532120       0.95530600       0.88525150
   154  C          0.10467880       0.45530600       0.61474850
   155  C          0.10467880       0.04469400       0.11474850
   156  C          0.89532120       0.54469400       0.38525150
   157  H          0.79910000       0.95740000       0.87080000
   158  H          0.20090000       0.45740000       0.62920000
   159  H          0.20090000       0.04260000       0.12920000
   160  H          0.79910000       0.54260000       0.37080000
   161  C          0.84132130       0.97545600       0.57148150
   162  C          0.15867870       0.47545600       0.92851850
   163  C          0.15867870       0.02454400       0.42851850
   164  C          0.84132130       0.52454400       0.07148150
   165  C          0.57744120       0.05552400       0.42801150
   166  C          0.42255880       0.55552400       0.07198850
   167  C          0.42255880       0.94447600       0.57198850
   168  C          0.57744120       0.44447600       0.92801150
   169  C          0.48494120       0.07253400       0.25719150
   170  C          0.51505880       0.57253400       0.24280850
   171  C          0.51505880       0.92746600       0.74280850
   172  C          0.48494120       0.42746600       0.75719150
   173  C          0.46347130       0.04802500       0.10669150
   174  C          0.53652870       0.54802500       0.39330850
   175  C          0.53652870       0.95197500       0.89330850
   176  C          0.46347130       0.45197500       0.60669150
   177  H          0.50750000       0.02010000       0.11420000
   178  H          0.49250000       0.52010000       0.38580000
   179  H          0.49250000       0.97990000       0.88580000
   180  H          0.50750000       0.47990000       0.61420000
   181  C          0.37904140       0.06363500       0.94650840
   182  C          0.62095860       0.56363500       0.55349160
   183  C          0.62095860       0.93636500       0.05349160
   184  C          0.37904140       0.43636500       0.44650840
   185  H          0.36490000       0.04640000       0.84560000
   186  H          0.63510000       0.54640000       0.65440000
   187  H          0.63510000       0.95360000       0.15440000
   188  H          0.36490000       0.45360000       0.34560000
   189  C          0.31543130       0.10440500       0.93378830
   190  C          0.68456870       0.60440500       0.56621170
   191  C          0.68456870       0.89559500       0.06621170
   192  C          0.31543130       0.39559500       0.43378830
   193  H          0.25910000       0.11550000       0.82400000
   194  H          0.74090000       0.61550000       0.67600000
   195  H          0.74090000       0.88450000       0.17600000
   196  H          0.25910000       0.38450000       0.32400000
   197  C          0.33436130       0.12882400       0.08154170
   198  C          0.66563870       0.62882400       0.41845830
   199  C          0.66563870       0.87117600       0.91845830
   200  C          0.33436130       0.37117600       0.58154170
   201  H          0.28960000       0.15660000       0.07320000
   202  H          0.71040000       0.65660000       0.42680000
   203  H          0.71040000       0.84340000       0.92680000
   204  H          0.28960000       0.34340000       0.57320000
   205  C          0.41835120       0.11318400       0.24253160
   206  C          0.58164880       0.61318400       0.25746840
   207  C          0.58164880       0.88681600       0.75746840
   208  C          0.41835120       0.38681600       0.74253160
   209  H          0.43040000       0.13030000       0.34320000
   210  H          0.56960000       0.63030000       0.15680000
   211  H          0.56960000       0.86970000       0.65680000
   212  H          0.43040000       0.36970000       0.84320000
   213  C          0.56583140       0.07410500       0.59112160
   214  C          0.43416860       0.57410500       0.90887840
   215  C          0.43416860       0.92589500       0.40887840
   216  C          0.56583140       0.42589500       0.09112160
   217  H          0.58330000       0.05070000       0.67820000
   218  H          0.41670000       0.55070000       0.82180000
   219  H          0.41670000       0.94930000       0.32180000
   220  H          0.58330000       0.44930000       0.17820000
   221  H          0.47190000       0.08610000       0.56710000
   222  H          0.52810000       0.58610000       0.93290000
   223  H          0.52810000       0.91390000       0.43290000
   224  H          0.47190000       0.41390000       0.06710000
   225  H          0.63480000       0.09770000       0.63470000
   226  H          0.36520000       0.59770000       0.86530000
   227  H          0.36520000       0.90230000       0.36530000
   228  H          0.63480000       0.40230000       0.13470000
   229  N          0.75379110       0.00896400       0.57594130
   230  N          0.24620890       0.50896400       0.92405870
   231  N          0.24620890       0.99103600       0.42405870
   232  N          0.75379110       0.49103600       0.07594130
   233  N          0.12985110       0.94189700       0.07424140
   234  N          0.87014890       0.44189700       0.42575860
   235  N          0.87014890       0.05810300       0.92575860
   236  N          0.12985110       0.55810300       0.57424140
   237  N          0.66235100       0.02495300       0.42009120
   238  N          0.33764900       0.52495300       0.07990880
   239  N          0.33764900       0.97504700       0.57990880
   240  N          0.66235100       0.47504700       0.92009120
   241  O          0.84237120       0.95694600       0.44090120
   242  O          0.15762880       0.45694600       0.05909880
   243  O          0.15762880       0.04305400       0.55909880
   244  O          0.84237120       0.54305400       0.94090120
   245  H          0.77171600       0.02365000       0.67220000
   246  H          0.22828400       0.52365000       0.82780000
   247  H          0.22828400       0.97635000       0.32780000
   248  H          0.77171600       0.47635000       0.17220000
