data_RUGSIW05
_symmetry_space_group_name_H-M    'P1'
_symmetry_Int_Tables_number       1
loop_
_symmetry_equiv_pos_site_id
_symmetry_equiv_pos_as_xyz
1 x,y,z
_cell_length_a                   9.73606
_cell_length_b                   9.87526
_cell_length_c                   26.154316
_cell_angle_alpha                92.8564
_cell_angle_beta                 100.2954
_cell_angle_gamma                91.2914
loop_
_atom_site_label
_atom_site_type_symbol
_atom_site_fract_x
_atom_site_fract_y
_atom_site_fract_z
     1  H          0.65340000       0.51330000       0.04231300
     2  H          0.34660000       0.48670000       0.95768700
     3  C          0.75373000       0.20133000       0.07763100
     4  C          0.24627000       0.79867000       0.92236900
     5  C          0.88123000       0.14223000       0.08445120
     6  C          0.11877000       0.85777000       0.91554880
     7  H          0.95850000       0.18630000       0.07400000
     8  H          0.04150000       0.81370000       0.92600000
     9  C          0.89644000       0.01863000       0.10655130
    10  C          0.10356000       0.98137000       0.89344870
    11  H         -0.01350000       0.98100000       0.11160000
    12  H          0.01350000       0.01900000       0.88840000
    13  C          0.67324000       0.00633000       0.11372160
    14  C          0.32676000      -0.00633000       0.88627840
    15  H          0.59710000       0.95760000       0.12320000
    16  H          0.40290000       0.04240000       0.87680000
    17  C          0.64714000       0.13153000       0.09328140
    18  C          0.35286000       0.86847000       0.90671860
    19  H          0.55680000       0.16830000       0.09020000
    20  H          0.44320000       0.83170000       0.90980000
    21  C          0.73943000       0.33003000       0.04989110
    22  C          0.26057000       0.66997000       0.95010890
    23  C          0.53263000       0.52693000       0.12070110
    24  C          0.46737000       0.47307000       0.87929890
    25  C          0.47363000       0.51743000       0.16901110
    26  C          0.52637000       0.48257000       0.83098890
    27  C          0.51564000       0.41683000       0.20280120
    28  C          0.48436000       0.58317000       0.79719880
    29  H          0.57990000       0.35220000       0.19420000
    30  H          0.42010000       0.64780000       0.80580000
    31  C          0.46534000       0.40844000       0.24913140
    32  C          0.53466000       0.59156000       0.75086860
    33  H          0.49720000       0.34070000       0.27260000
    34  H          0.50280000       0.65930000       0.72740000
    35  C          0.36855000       0.49955000       0.26057160
    36  C          0.63145000       0.50045000       0.73942840
    37  H          0.33230000       0.49350000       0.29180000
    38  H          0.66770000       0.50650000       0.70820000
    39  C          0.32474000       0.59775000       0.22747160
    40  C          0.67526000       0.40225000       0.77252840
    41  H          0.25770000       0.65970000       0.23560000
    42  H          0.74230000       0.34030000       0.76440000
    43  C          0.37733000       0.60813000       0.18178130
    44  C          0.62267000       0.39187000       0.81821870
    45  H          0.34680000       0.67790000       0.15910000
    46  H          0.65320000       0.32210000       0.84090000
    47  C          0.51464000       0.65133000       0.09067130
    48  C          0.48536000       0.34867000       0.90932870
    49  H          0.60500000       0.69930000       0.09360000
    50  H          0.39500000       0.30070000       0.90640000
    51  H          0.44910000       0.71050000       0.10460000
    52  H          0.55090000       0.28950000       0.89540000
    53  H          0.47770000       0.62590000       0.05400000
    54  H          0.52230000       0.37410000       0.94600000
    55  N          0.66073000       0.43122000       0.06452900
    56  N          0.33927000       0.56878000       0.93547100
    57  N          0.79554000       0.94967000       0.12098110
    58  N          0.20446000       0.05033000       0.87901890
    59  N          0.60052000       0.42392000       0.10837900
    60  N          0.39948000       0.57608000       0.89162100
    61  O          0.79982000       0.34336180       0.01277800
    62  O          0.20018000       0.65663820       0.98722200
    63  C          0.16493000       0.30603000       0.43124100
    64  C          0.83507000       0.69397000       0.56875900
    65  C          0.13853000       0.32383000       0.37851110
    66  C          0.86147000       0.67617000       0.62148890
    67  H          0.13020000       0.24790000       0.35430000
    68  H          0.86980000       0.75210000       0.64570000
    69  C          0.12443000       0.45273000       0.36148120
    70  C          0.87557000       0.54727000       0.63851880
    71  H          0.11060000       0.46320000       0.32500000
    72  H          0.88940000       0.53680000       0.67500000
    73  C          0.15274000       0.54513000       0.44292130
    74  C          0.84726000       0.45487000       0.55707870
    75  H          0.15630000       0.62290000       0.46610000
    76  H          0.84370000       0.37710000       0.53390000
    77  C          0.17273000       0.42063000       0.46434110
    78  C          0.82727000       0.57937000       0.53565890
    79  H          0.19150000       0.41380000       0.50100000
    80  H          0.80850000       0.58620000       0.49900000
    81  C          0.19353000       0.17433000       0.45592110
    82  C          0.80647000       0.82567000       0.54407890
    83  C          0.91627000       0.96367000       0.38917100
    84  C          0.08373000       0.03633000       0.61082900
    85  C          0.80477000       0.96687000       0.34282110
    86  C          0.19523000       0.03313000       0.65717890
    87  C          0.79737000       0.07453000       0.31024120
    88  C          0.20263000       0.92547000       0.68975880
    89  H          0.86220000       0.14910000       0.31860000
    90  H          0.13780000       0.85090000       0.68140000
    91  C          0.69616000       0.07354000       0.26573140
    92  C          0.30384000       0.92646000       0.73426860
    93  H          0.69130000       0.14830000       0.24400000
    94  H          0.30870000       0.85170000       0.75600000
    95  C          0.60316000       0.96606000       0.25261140
    96  C          0.39684000       0.03394000       0.74738860
    97  H          0.53520000       0.96540000       0.22160000
    98  H          0.46480000       0.03460000       0.77840000
    99  C          0.60866000       0.86086000       0.28408140
   100  C          0.39134000       0.13914000       0.71591860
   101  H          0.54340000       0.78680000       0.27540000
   102  H          0.45660000       0.21320000       0.72460000
   103  C          0.70897000       0.86057000       0.32877120
   104  C          0.29103000       0.13943000       0.67122880
   105  H          0.71200000       0.78550000       0.35030000
   106  H          0.28800000       0.21450000       0.64970000
   107  C          0.92987000       0.83887000       0.41963120
   108  C          0.07013000       0.16113000       0.58036880
   109  H          0.98270000       0.77180000       0.40290000
   110  H          0.01730000       0.22820000       0.59710000
   111  H          0.83680000       0.80090000       0.42080000
   112  H          0.16320000       0.19910000       0.57920000
   113  H          0.97930000       0.86230000       0.45510000
   114  H          0.02070000       0.13770000       0.54490000
   115  N          0.10942000       0.06532000       0.44025900
   116  N          0.89058000       0.93468000       0.55974100
   117  N          0.12873000       0.56362000       0.39246110
   118  N          0.87127000       0.43638000       0.60753890
   119  N         -0.00202000       0.06932000       0.39946900
   120  N          0.00202000       0.93068000       0.60053100
   121  O          0.29502000       0.16867180       0.49166800
   122  O          0.70498000       0.83132820       0.50833200
   123  H          0.13330000      -0.01130000       0.45981000
   124  H          0.86670000       0.01130000       0.54019000
   125  C          0.33223000       0.71097000       0.56984100
   126  C          0.66777000       0.28903000       0.43015900
   127  C          0.45413000       0.64267000       0.56777130
   128  C          0.54587000       0.35733000       0.43222870
   129  H          0.52720000       0.68220000       0.55320000
   130  H          0.47280000       0.31780000       0.44680000
   131  C          0.46623000       0.51627000       0.58741140
   132  C          0.53377000       0.48373000       0.41258860
   133  H          0.54980000       0.46990000       0.58550000
   134  H          0.45020000       0.53010000       0.41450000
   135  C          0.25654000       0.52257000       0.61087110
   136  C          0.74346000       0.47743000       0.38912890
   137  H          0.18670000       0.48220000       0.62690000
   138  H          0.81330000       0.51780000       0.37310000
   139  C          0.23173000       0.64857000       0.59149110
   140  C          0.76827000       0.35143000       0.40850890
   141  H          0.14600000       0.69140000       0.59320000
   142  H          0.85400000       0.30860000       0.40680000
   143  C          0.30423000       0.84227000       0.54485110
   144  C          0.69577000       0.15773000       0.45514890
   145  C          0.58373000       0.04263000       0.61390100
   146  C          0.41627000       0.95737000       0.38609900
   147  C          0.69263000       0.02793000       0.66047110
   148  C          0.30737000       0.97207000       0.33952890
   149  C          0.69093000       0.91477000       0.69048110
   150  C          0.30907000       0.08523000       0.30951890
   151  H          0.61770000       0.84800000       0.68130000
   152  H          0.38230000       0.15200000       0.31870000
   153  C          0.79294000       0.89866000       0.73284120
   154  C          0.20706000       0.10134000       0.26715880
   155  H          0.79060000       0.82020000       0.75230000
   156  H          0.20940000       0.17980000       0.24770000
   157  C          0.89844000      -0.00544000       0.74756130
   158  C          0.10156000       0.00544000       0.25243870
   159  H          0.96860000       0.98310000       0.77720000
   160  H          0.03140000       0.01690000       0.22280000
   161  C          0.90174000       0.10704000       0.71922140
   162  C          0.09826000       0.89296000       0.28077860
   163  H          0.97420000       0.17420000       0.72940000
   164  H          0.02580000       0.82580000       0.27060000
   165  C          0.80043000       0.12383000       0.67582120
   166  C          0.19957000       0.87617000       0.32417880
   167  H          0.80480000       0.20180000       0.65630000
   168  H          0.19520000       0.79820000       0.34370000
   169  C          0.57523000       0.17213000       0.58691120
   170  C          0.42477000       0.82787000       0.41308880
   171  H          0.53220000       0.15430000       0.55030000
   172  H          0.46780000       0.84570000       0.44970000
   173  H          0.66930000       0.21190000       0.58910000
   174  H          0.33070000       0.78810000       0.41090000
   175  H          0.51840000       0.23540000       0.60360000
   176  H          0.48160000       0.76460000       0.39640000
   177  N          0.39452000       0.94778000       0.55843900
   178  N          0.60548000       0.05222000       0.44156100
   179  N          0.37043000       0.45388000       0.60885100
   180  N          0.62957000       0.54612000       0.39114900
   181  N          0.50162000       0.93878000       0.60064900
   182  N          0.49838000       0.06122000       0.39935100
   183  O          0.19932000       0.85088820       0.51094800
   184  O          0.80068000       0.14911180       0.48905200
   185  H          0.37430000       0.02330000       0.54081100
   186  H          0.62570000       0.97670000       0.45918900
   187  C          0.74193000       0.79653000       0.93333890
   188  C          0.25807000       0.20347000       0.06666110
   189  C          0.71893000       0.80973000       0.87982890
   190  C          0.28107000       0.19027000       0.12017110
   191  H          0.71420000       0.73200000       0.85650000
   192  H          0.28580000       0.26800000       0.14350000
   193  C          0.70323000       0.93733000       0.86129880
   194  C          0.29677000       0.06267000       0.13870120
   195  H          0.68490000       0.94440000       0.82460000
   196  H          0.31510000       0.05560000       0.17540000
   197  C          0.73545000       0.03713000       0.94152860
   198  C          0.26455000       0.96287000       0.05847140
   199  H          0.74340000       0.11710000       0.96370000
   200  H          0.25660000       0.88290000       0.03630000
   201  C          0.74944000       0.91403000       0.96432880
   202  C          0.25056000       0.08597000       0.03567120
   203  H          0.76400000       0.91040000       0.00110000
   204  H          0.23600000       0.08960000      -0.00110000
   205  C          0.74773000       0.66593000       0.95948890
   206  C          0.25227000       0.33407000       0.04051110
   207  C          0.95893000       0.46963000       0.89061890
   208  C          0.04107000       0.53037000       0.10938110
   209  C          0.02563000       0.48443000       0.84406890
   210  C          0.97437000       0.51557000       0.15593110
   211  C          0.01163000       0.60223000       0.81676890
   212  C         -0.01163000       0.39777000       0.18323110
   213  H          0.95990000       0.67460000       0.82820000
   214  H          0.04010000       0.32540000       0.17180000
   215  C          0.07194000       0.61494000       0.77341880
   216  C          0.92806000       0.38506000       0.22658120
   217  H          0.06240000       0.69630000       0.75540000
   218  H          0.93760000       0.30370000       0.24460000
   219  C          0.14574000       0.51024000       0.75605870
   220  C          0.85426000       0.48976000       0.24394130
   221  H          0.18610000       0.51890000       0.72590000
   222  H          0.81390000       0.48110000       0.27410000
   223  C          0.16074000       0.39414000       0.78228860
   224  C          0.83926000       0.60586000       0.21771140
   225  H          0.21210000       0.32210000       0.77040000
   226  H          0.78790000       0.67790000       0.22960000
   227  C          0.10153000       0.38063000       0.82610870
   228  C          0.89847000       0.61937000       0.17389130
   229  H          0.11290000       0.29930000       0.84420000
   230  H          0.88710000       0.70070000       0.15580000
   231  C          0.97304000       0.34043000       0.91812870
   232  C          0.02696000       0.65957000       0.08187130
   233  H          0.95280000       0.35600000       0.95330000
   234  H          0.04720000       0.64400000       0.04670000
   235  H          0.06840000       0.30880000       0.92030000
   236  H          0.93160000       0.69120000       0.07970000
   237  H          0.90690000       0.27150000       0.89890000
   238  H          0.09310000       0.72850000       0.10110000
   239  N          0.81933000       0.56152000       0.94381100
   240  N          0.18067000       0.43848000       0.05618900
   241  N          0.71173000       0.05063000       0.89072890
   242  N          0.28827000       0.94937000       0.10927110
   243  N          0.88952000       0.57132000       0.90252100
   244  N          0.11048000       0.42868000       0.09747900
   245  O          0.68672000       0.65530190      -0.00323800
   246  O          0.31328000       0.34469810       0.00323800
   247  H          0.81930000       0.48530000       0.96159000
   248  H          0.18070000       0.51470000       0.03841000
