data_RUGSIW01
_symmetry_space_group_name_H-M    'P1'
_symmetry_Int_Tables_number       1
loop_
_symmetry_equiv_pos_site_id
_symmetry_equiv_pos_as_xyz
1 x,y,z
_cell_length_a                   13.4882
_cell_length_b                   9.661115
_cell_length_c                   9.360413
_cell_angle_alpha                90.0
_cell_angle_beta                 90.1835
_cell_angle_gamma                90.0
loop_
_atom_site_label
_atom_site_type_symbol
_atom_site_fract_x
_atom_site_fract_y
_atom_site_fract_z
     1  C          0.26804180       0.31463000       0.04743000
     2  C          0.73195820       0.81463000       0.45257000
     3  C          0.73195820       0.68537000       0.95257000
     4  C          0.26804180       0.18537000       0.54743000
     5  C          0.21844180       0.22683000       0.13863000
     6  C          0.78155820       0.72683000       0.36137000
     7  C          0.78155820       0.77317000       0.86137000
     8  C          0.21844180       0.27317000       0.63863000
     9  H          0.24910000       0.14430000       0.17210000
    10  H          0.75090000       0.64430000       0.32790000
    11  H          0.75090000       0.85570000       0.82790000
    12  H          0.24910000       0.35570000       0.67210000
    13  C          0.12278190       0.26113000       0.18073000
    14  C          0.87721810       0.76113000       0.31927000
    15  C          0.87721810       0.73887000       0.81927000
    16  C          0.12278190       0.23887000       0.68073000
    17  H          0.08910000       0.19910000       0.24260000
    18  H          0.91090000       0.69910000       0.25740000
    19  H          0.91090000       0.80090000       0.75740000
    20  H          0.08910000       0.30090000       0.74260000
    21  C          0.12482000       0.46143000       0.05224000
    22  C          0.87518000       0.96143000       0.44776000
    23  C          0.87518000       0.53857000       0.94776000
    24  C          0.12482000       0.03857000       0.55224000
    25  H          0.09300000       0.54430000       0.02230000
    26  H          0.90700000       0.04430000       0.47770000
    27  H          0.90700000       0.45570000       0.97770000
    28  H          0.09300000       0.95570000       0.52230000
    29  C          0.21962000       0.43523000       0.00353000
    30  C          0.78038000       0.93523000       0.49647000
    31  C          0.78038000       0.56477000      -0.00353000
    32  C          0.21962000       0.06477000       0.50353000
    33  H          0.25150000       0.49850000       0.94100000
    34  H          0.74850000      -0.00150000       0.55900000
    35  H          0.74850000       0.50150000       0.05900000
    36  H          0.25150000       0.00150000       0.44100000
    37  C          0.36850170       0.28653000      -0.01453000
    38  C          0.63149830       0.78653000       0.51453000
    39  C          0.63149830       0.71347000       0.01453000
    40  C          0.36850170       0.21347000       0.48547000
    41  C          0.56342190       0.03403000       0.21313000
    42  C          0.43657810       0.53403000       0.28687000
    43  C          0.43657810       0.96597000       0.78687000
    44  C          0.56342190       0.46597000       0.71313000
    45  H          0.57070000       0.09170000       0.29860000
    46  H          0.42930000       0.59170000       0.20140000
    47  H          0.42930000       0.90830000       0.70140000
    48  H          0.57070000       0.40830000       0.79860000
    49  H          0.60850000       0.95470000       0.21950000
    50  H          0.39150000       0.45470000       0.28050000
    51  H          0.39150000       0.04530000       0.78050000
    52  H          0.60850000       0.54530000       0.71950000
    53  H          0.49490000       0.00090000       0.20600000
    54  H          0.50510000       0.50090000       0.29400000
    55  H          0.50510000      -0.00090000       0.79400000
    56  H          0.49490000       0.49910000       0.70600000
    57  C          0.58814180       0.11802000       0.08313000
    58  C          0.41185820       0.61802000       0.41687000
    59  C          0.41185820       0.88198000       0.91687000
    60  C          0.58814180       0.38198000       0.58313000
    61  C          0.69004180       0.11132000       0.02133000
    62  C          0.30995820       0.61132000       0.47867000
    63  C          0.30995820       0.88868000       0.97867000
    64  C          0.69004180       0.38868000       0.52133000
    65  C          0.70862000       0.15533000       0.88327000
    66  C          0.29138000       0.65533000       0.61673000
    67  C          0.29138000       0.84467000       0.11673000
    68  C          0.70862000       0.34467000       0.38327000
    69  H          0.65510000       0.18540000       0.82480000
    70  H          0.34490000       0.68540000       0.67520000
    71  H          0.34490000       0.81460000       0.17520000
    72  H          0.65510000       0.31460000       0.32480000
    73  C          0.80412000       0.15603000       0.82916000
    74  C          0.19588000       0.65603000       0.67084000
    75  C          0.19588000       0.84397000       0.17084000
    76  C          0.80412000       0.34397000       0.32916000
    77  H          0.81560000       0.18350000       0.73320000
    78  H          0.18440000       0.68350000       0.76680000
    79  H          0.18440000       0.81650000       0.26680000
    80  H          0.81560000       0.31650000       0.23320000
    81  C          0.88332000       0.11633000       0.91596000
    82  C          0.11668000       0.61633000       0.58404000
    83  C          0.11668000       0.88367000       0.08404000
    84  C          0.88332000       0.38367000       0.41596000
    85  H          0.94930000       0.12080000       0.88080000
    86  H          0.05070000       0.62080000       0.61920000
    87  H          0.05070000       0.87920000       0.11920000
    88  H          0.94930000       0.37920000       0.38080000
    89  C          0.86592000       0.07073000       0.05204000
    90  C          0.13408000       0.57073000       0.44796000
    91  C          0.13408000       0.92927000       0.94796000
    92  C          0.86592000       0.42927000       0.55204000
    93  H          0.91980000       0.04150000       0.11020000
    94  H          0.08020000       0.54150000       0.38980000
    95  H          0.08020000       0.95850000       0.88980000
    96  H          0.91980000       0.45850000       0.61020000
    97  C          0.77012000       0.06673000       0.10593000
    98  C          0.22988000       0.56673000       0.39407000
    99  C          0.22988000       0.93327000       0.89407000
   100  C          0.77012000       0.43327000       0.60593000
   101  H          0.75860000       0.03370000       0.20000000
   102  H          0.24140000       0.53370000       0.30000000
   103  H          0.24140000       0.96630000       0.80000000
   104  H          0.75860000       0.46630000       0.70000000
   105  N          0.43312150       0.21322000       0.06732000
   106  N          0.56687850       0.71322000       0.43268000
   107  N          0.56687850       0.78678000       0.93268000
   108  N          0.43312150       0.28678000       0.56732000
   109  N          0.07526180       0.37603000       0.13943000
   110  N          0.92473820       0.87603000       0.36057000
   111  N          0.92473820       0.62397000       0.86057000
   112  N          0.07526180       0.12397000       0.63943000
   113  N          0.52849150       0.19852000       0.01492000
   114  N          0.47150850       0.69852000       0.48508000
   115  N          0.47150850       0.80148000       0.98508000
   116  N          0.52849150       0.30148000       0.51492000
   117  O          0.38732140       0.32802000       0.86538000
   118  O          0.61267860       0.82802000       0.63462000
   119  O          0.61267860       0.67198000       0.13462000
   120  O          0.38732140       0.17198000       0.36538000
   121  H          0.41620000       0.19530000       0.16340000
   122  H          0.58380000       0.69530000       0.33660000
   123  H          0.58380000       0.80470000       0.83660000
   124  H          0.41620000       0.30470000       0.66340000
