data_RUGSIW
_symmetry_space_group_name_H-M    'P1'
_symmetry_Int_Tables_number       1
loop_
_symmetry_equiv_pos_site_id
_symmetry_equiv_pos_as_xyz
1 x,y,z
_cell_length_a                   25.8785
_cell_length_b                   5.710011
_cell_length_c                   8.308917
_cell_angle_alpha                90.0
_cell_angle_beta                 90.943
_cell_angle_gamma                90.0
loop_
_atom_site_label
_atom_site_type_symbol
_atom_site_fract_x
_atom_site_fract_y
_atom_site_fract_z
     1  N          0.28050600       0.28933000       0.97422000
     2  N          0.71949400       0.78933000       0.52578000
     3  N          0.71949400       0.71067000       0.02578000
     4  N          0.28050600       0.21067000       0.47422000
     5  N          0.23151700       0.31043000       0.03942000
     6  N          0.76848300       0.81043000       0.46058000
     7  N          0.76848300       0.68957000       0.96058000
     8  N          0.23151700       0.18957000       0.53942000
     9  C          0.31164700       0.12244000       0.03822000
    10  C          0.68835300       0.62244000       0.46178000
    11  C          0.68835300       0.87756000       0.96178000
    12  C          0.31164700       0.37756000       0.53822000
    13  O          0.30052600       0.00993000       0.15887180
    14  O          0.69947400       0.50993000       0.34112820
    15  O          0.69947400      -0.00993000       0.84112820
    16  O          0.30052600       0.49007000       0.65887180
    17  C          0.15153700       0.49824000       0.06632000
    18  C          0.84846300      -0.00176000       0.43368000
    19  C          0.84846300       0.50176000       0.93368000
    20  C          0.15153700       0.00176000       0.56632000
    21  C          0.20515800       0.49384000       0.00192000
    22  C          0.79484200      -0.00616000       0.49808000
    23  C          0.79484200       0.50616000      -0.00192000
    24  C          0.20515800       0.00616000       0.50192000
    25  C          0.36258700       0.08134000       0.95832000
    26  C          0.63741300       0.58134000       0.54168000
    27  C          0.63741300       0.91866000       0.04168000
    28  C          0.36258700       0.41866000       0.45832000
    29  C          0.38721800       0.24324000       0.86233000
    30  C          0.61278200       0.74324000       0.63767000
    31  C          0.61278200       0.75676000       0.13767000
    32  C          0.38721800       0.25676000       0.36233000
    33  H          0.37190000       0.38700000       0.83900000
    34  H          0.62810000       0.88700000       0.66100000
    35  H          0.62810000       0.61300000       0.16100000
    36  H          0.37190000       0.11300000       0.33900000
    37  C          0.22348900       0.69434000       0.90293000
    38  C          0.77651100       0.19434000       0.59707000
    39  C          0.77651100       0.30566000       0.09707000
    40  C          0.22348900       0.80566000       0.40293000
    41  H          0.25830000       0.66580000       0.87040000
    42  H          0.74170000       0.16580000       0.62960000
    43  H          0.74170000       0.33420000       0.12960000
    44  H          0.25830000       0.83420000       0.37040000
    45  H          0.22230000       0.83560000       0.96540000
    46  H          0.77770000       0.33560000       0.53460000
    47  H          0.77770000       0.16440000       0.03460000
    48  H          0.22230000       0.66440000       0.46540000
    49  H          0.20160000       0.71070000       0.80920000
    50  H          0.79840000       0.21070000       0.69080000
    51  H          0.79840000       0.28930000       0.19080000
    52  H          0.20160000       0.78930000       0.30920000
    53  C          0.13477800       0.32434000       0.17043000
    54  C          0.86522200       0.82434000       0.32957000
    55  C          0.86522200       0.67566000       0.82957000
    56  C          0.13477800       0.17566000       0.67043000
    57  H          0.15740000       0.20580000       0.20210000
    58  H          0.84260000       0.70580000       0.29790000
    59  H          0.84260000       0.79420000       0.79790000
    60  H          0.15740000       0.29420000       0.70210000
    61  C          0.06659900       0.67125000       0.07813000
    62  C          0.93340100       0.17125000       0.42187000
    63  C          0.93340100       0.32875000       0.92187000
    64  C          0.06659900       0.82875000       0.57813000
    65  H          0.04370000       0.78870000       0.04680000
    66  H          0.95630000       0.28870000       0.45320000
    67  H          0.95630000       0.21130000       0.95320000
    68  H          0.04370000       0.71130000       0.54680000
    69  C          0.08489900       0.32545000       0.22753000
    70  C          0.91510100       0.82545000       0.27247000
    71  C          0.91510100       0.67455000       0.77247000
    72  C          0.08489900       0.17455000       0.72753000
    73  H          0.07440000       0.20920000       0.29820000
    74  H          0.92560000       0.70920000       0.20180000
    75  H          0.92560000       0.79080000       0.70180000
    76  H          0.07440000       0.29080000       0.79820000
    77  C          0.11683900       0.67245000       0.02133000
    78  C          0.88316100       0.17245000       0.47867000
    79  C          0.88316100       0.32755000       0.97867000
    80  C          0.11683900       0.82755000       0.52133000
    81  H          0.12730000       0.79110000       0.95240000
    82  H          0.87270000       0.29110000       0.54760000
    83  H          0.87270000       0.20890000       0.04760000
    84  H          0.12730000       0.70890000       0.45240000
    85  C          0.38778900       0.87115000      -0.00927000
    86  C          0.61221100       0.37115000       0.50927000
    87  C          0.61221100       0.12885000       0.00927000
    88  C          0.38778900       0.62885000       0.49073000
    89  H          0.37280000       0.75860000       0.05610000
    90  H          0.62720000       0.25860000       0.44390000
    91  H          0.62720000       0.24140000       0.94390000
    92  H          0.37280000       0.74140000       0.55610000
    93  N          0.45942800      -0.01435000       0.82873000
    94  N          0.54057200       0.48565000       0.67127000
    95  N          0.54057200       0.01435000       0.17127000
    96  N          0.45942800       0.51435000       0.32873000
    97  C          0.05063800       0.49785000       0.18013000
    98  C          0.94936200      -0.00215000       0.31987000
    99  C          0.94936200       0.50215000       0.81987000
   100  C          0.05063800       0.00215000       0.68013000
   101  H          0.01690000       0.49650000       0.21700000
   102  H          0.98310000      -0.00350000       0.28300000
   103  H          0.98310000       0.50350000       0.78300000
   104  H          0.01690000       0.00350000       0.71700000
   105  C          0.43514900       0.18645000       0.80153000
   106  C          0.56485100       0.68645000       0.69847000
   107  C          0.56485100       0.81355000       0.19847000
   108  C          0.43514900       0.31355000       0.30153000
   109  H          0.45140000       0.29660000       0.73730000
   110  H          0.54860000       0.79660000       0.76270000
   111  H          0.54860000       0.70340000       0.26270000
   112  H          0.45140000       0.20340000       0.23730000
   113  C          0.43566100       0.83305000       0.92354000
   114  C          0.56433900       0.33305000       0.57646000
   115  C          0.56433900       0.16695000       0.07646000
   116  C          0.43566100       0.66695000       0.42354000
   117  H          0.45230000       0.69220000       0.94600000
   118  H          0.54770000       0.19220000       0.55400000
   119  H          0.54770000       0.30780000       0.05400000
   120  H          0.45230000       0.80780000       0.44600000
   121  H          0.28759000       0.34950000       0.88130000
   122  H          0.71241000       0.84950000       0.61870000
   123  H          0.71241000       0.65050000       0.11870000
   124  H          0.28759000       0.15050000       0.38130000
