data_RUGSIW06
_symmetry_space_group_name_H-M    'P1'
_symmetry_Int_Tables_number       1
loop_
_symmetry_equiv_pos_site_id
_symmetry_equiv_pos_as_xyz
1 x,y,z
_cell_length_a                   10.621716
_cell_length_b                   14.4422
_cell_length_c                   8.258912
_cell_angle_alpha                90.0
_cell_angle_beta                 109.6235
_cell_angle_gamma                90.0
loop_
_atom_site_label
_atom_site_type_symbol
_atom_site_fract_x
_atom_site_fract_y
_atom_site_fract_z
     1  C         -0.00087000       0.34352000       0.69544000
     2  C          0.00087000       0.84352000       0.80456000
     3  C          0.00087000       0.65648000       0.30456000
     4  C         -0.00087000       0.15648000       0.19544000
     5  C          0.08623000       0.28522000       0.81334000
     6  C          0.91377000       0.78522000       0.68666000
     7  C          0.91377000       0.71478000       0.18666000
     8  C          0.08623000       0.21478000       0.31334000
     9  H          0.08430000       0.22030000       0.79400000
    10  H          0.91570000       0.72030000       0.70600000
    11  H          0.91570000       0.77970000       0.20600000
    12  H          0.08430000       0.27970000       0.29400000
    13  C          0.17603000       0.32353000       0.96004000
    14  C          0.82397000       0.82353000       0.53996000
    15  C          0.82397000       0.67647000       0.03996000
    16  C          0.17603000       0.17647000       0.46004000
    17  H          0.23580000       0.28310000       0.04050000
    18  H          0.76420000       0.78310000       0.45950000
    19  H          0.76420000       0.71690000       0.95950000
    20  H          0.23580000       0.21690000       0.54050000
    21  C          0.09873000       0.46842000       0.87984000
    22  C          0.90127000       0.96842000       0.62016000
    23  C          0.90127000       0.53158000       0.12016000
    24  C          0.09873000       0.03158000       0.37984000
    25  H          0.10150000       0.53290000       0.90340000
    26  H          0.89850000       0.03290000       0.59660000
    27  H          0.89850000       0.46710000       0.09660000
    28  H          0.10150000       0.96710000       0.40340000
    29  C          0.00703000       0.43722000       0.72824000
    30  C         -0.00703000       0.93722000       0.77176000
    31  C         -0.00703000       0.56278000       0.27176000
    32  C          0.00703000       0.06278000       0.22824000
    33  H          0.95050000       0.47940000       0.64820000
    34  H          0.04950000       0.97940000       0.85180000
    35  H          0.04950000       0.52060000       0.35180000
    36  H          0.95050000       0.02060000       0.14820000
    37  C          0.90203000       0.30982000       0.53024000
    38  C          0.09797000       0.80982000       0.96976000
    39  C          0.09797000       0.69018000       0.46976000
    40  C          0.90203000       0.19018000       0.03024000
    41  C          0.61663000       0.12612000       0.56774000
    42  C          0.38337000       0.62612000       0.93226000
    43  C          0.38337000       0.87388000       0.43226000
    44  C          0.61663000       0.37388000       0.06774000
    45  H          0.69190000       0.14830000       0.66550000
    46  H          0.30810000       0.64830000       0.83450000
    47  H          0.30810000       0.85170000       0.33450000
    48  H          0.69190000       0.35170000       0.16550000
    49  H          0.61350000       0.05830000       0.57020000
    50  H          0.38650000       0.55830000       0.92980000
    51  H          0.38650000       0.94170000       0.42980000
    52  H          0.61350000       0.44170000       0.07020000
    53  H          0.53310000       0.15150000       0.57490000
    54  H          0.46690000       0.65150000       0.92510000
    55  H          0.46690000       0.84850000       0.42510000
    56  H          0.53310000       0.34850000       0.07490000
    57  C          0.63413000       0.15712000       0.40384000
    58  C          0.36587000       0.65712000       0.09616000
    59  C          0.36587000       0.84288000       0.59616000
    60  C          0.63413000       0.34288000       0.90384000
    61  C          0.53093000       0.13124190       0.23844000
    62  C          0.46907000       0.63124190       0.26156000
    63  C          0.46907000       0.86875810       0.76156000
    64  C          0.53093000       0.36875810       0.73844000
    65  C          0.55653000       0.13462000       0.08564000
    66  C          0.44347000       0.63462000       0.41436000
    67  C          0.44347000       0.86538000       0.91436000
    68  C          0.55653000       0.36538000       0.58564000
    69  H          0.64310000       0.15150000       0.08620000
    70  H          0.35690000       0.65150000       0.41380000
    71  H          0.35690000       0.84850000       0.91380000
    72  H          0.64310000       0.34850000       0.58620000
    73  C          0.45803000       0.11362000       0.93126000
    74  C          0.54197000       0.61362000       0.56874000
    75  C          0.54197000       0.88638000       0.06874000
    76  C          0.45803000       0.38638000       0.43126000
    77  H          0.47700000       0.11690000       0.82690000
    78  H          0.52300000       0.61690000       0.67310000
    79  H          0.52300000       0.88310000       0.17310000
    80  H          0.47700000       0.38310000       0.32690000
    81  C          0.33303000       0.08802000       0.92866000
    82  C          0.66697000       0.58802000       0.57134000
    83  C          0.66697000       0.91198000       0.07134000
    84  C          0.33303000       0.41198000       0.42866000
    85  H          0.26530000       0.07350000       0.82280000
    86  H          0.73470000       0.57350000       0.67720000
    87  H          0.73470000       0.92650000       0.17720000
    88  H          0.26530000       0.42650000       0.32280000
    89  C          0.30643000       0.08352000       0.07914000
    90  C          0.69357000       0.58352000       0.42086000
    91  C          0.69357000       0.91648000       0.92086000
    92  C          0.30643000       0.41648000       0.57914000
    93  H          0.22010000       0.06540000       0.07780000
    94  H          0.77990000       0.56540000       0.42220000
    95  H          0.77990000       0.93460000       0.92220000
    96  H          0.22010000       0.43460000       0.57780000
    97  C          0.40403000       0.10512000       0.23284000
    98  C          0.59597000       0.60512000       0.26716000
    99  C          0.59597000       0.89488000       0.76716000
   100  C          0.40403000       0.39488000       0.73284000
   101  H          0.38400000       0.10200000       0.33650000
   102  H          0.61600000       0.60200000       0.16350000
   103  H          0.61600000       0.89800000       0.66350000
   104  H          0.38400000       0.39800000       0.83650000
   105  N          0.82772000       0.23631170       0.54093000
   106  N          0.17228000       0.73631170       0.95907000
   107  N          0.17228000       0.76368830       0.45907000
   108  N          0.82772000       0.26368830       0.04093000
   109  H          0.82930000       0.21620000       0.64350000
   110  H          0.17070000       0.71620000       0.85650000
   111  H          0.17070000       0.78380000       0.35650000
   112  H          0.82930000       0.28380000       0.14350000
   113  N          0.18373000       0.41352000      -0.00486000
   114  N          0.81627000       0.91352000       0.50486000
   115  N          0.81627000       0.58648000       0.00486000
   116  N          0.18373000       0.08648000       0.49514000
   117  N          0.73032000       0.20706160       0.39043000
   118  N          0.26968000       0.70706160       0.10957000
   119  N          0.26968000       0.79293840       0.60957000
   120  N          0.73032000       0.29293840       0.89043000
   121  O          0.89252000       0.34926140       0.39483000
   122  O          0.10748000       0.84926140       0.10517000
   123  O          0.10748000       0.65073860       0.60517000
   124  O          0.89252000       0.15073860       0.89483000
