data_RUGSIW02
_symmetry_space_group_name_H-M    'P1'
_symmetry_Int_Tables_number       1
loop_
_symmetry_equiv_pos_site_id
_symmetry_equiv_pos_as_xyz
1 x,y,z
_cell_length_a                   25.899813
_cell_length_b                   5.54633
_cell_length_c                   8.31874
_cell_angle_alpha                90.0
_cell_angle_beta                 95.8764
_cell_angle_gamma                90.0
loop_
_atom_site_label
_atom_site_type_symbol
_atom_site_fract_x
_atom_site_fract_y
_atom_site_fract_z
     1  C          0.36288800       0.06004000       0.66212000
     2  C          0.63711200       0.56004000       0.83788000
     3  C          0.63711200       0.93996000       0.33788000
     4  C          0.36288800       0.43996000       0.16212000
     5  C          0.38840800       0.20874000       0.77912000
     6  C          0.61159200       0.70874000       0.72088000
     7  C          0.61159200       0.79126000       0.22088000
     8  C          0.38840800       0.29126000       0.27912000
     9  H          0.37340000       0.35740000       0.80680000
    10  H          0.62660000       0.85740000       0.69320000
    11  H          0.62660000       0.64260000       0.19320000
    12  H          0.37340000       0.14260000       0.30680000
    13  C          0.43613800       0.13654000       0.85473000
    14  C          0.56386200       0.63654000       0.64527000
    15  C          0.56386200       0.86346000       0.14527000
    16  C          0.43613800       0.36346000       0.35473000
    17  H          0.45310000       0.23990000       0.93450000
    18  H          0.54690000       0.73990000       0.56550000
    19  H          0.54690000       0.76010000       0.06550000
    20  H          0.45310000       0.26010000       0.43450000
    21  C          0.43498800       0.78946000       0.70833000
    22  C          0.56501200       0.28946000       0.79167000
    23  C          0.56501200       0.21054000       0.29167000
    24  C          0.43498800       0.71054000       0.20833000
    25  H          0.45110000       0.64280000       0.68220000
    26  H          0.54890000       0.14280000       0.81780000
    27  H          0.54890000       0.35720000       0.31780000
    28  H          0.45110000       0.85720000       0.18220000
    29  C          0.38723800       0.84556000       0.62673000
    30  C          0.61276200       0.34556000       0.87327000
    31  C          0.61276200       0.15444000       0.37327000
    32  C          0.38723800       0.65444000       0.12673000
    33  H          0.37120000       0.73880000       0.54730000
    34  H          0.62880000       0.23880000       0.95270000
    35  H          0.62880000       0.26120000       0.45270000
    36  H          0.37120000       0.76120000       0.04730000
    37  C          0.31228800       0.11714000       0.56492000
    38  C          0.68771200       0.61714000       0.93508000
    39  C          0.68771200       0.88286000       0.43508000
    40  C          0.31228800       0.38286000       0.06492000
    41  C          0.22413900       0.70604000       0.67343000
    42  C          0.77586100       0.20604000       0.82657000
    43  C          0.77586100       0.29396000       0.32657000
    44  C          0.22413900       0.79396000       0.17343000
    45  H          0.20950000       0.69310000       0.77710000
    46  H          0.79050000       0.19310000       0.72290000
    47  H          0.79050000       0.30690000       0.22290000
    48  H          0.20950000       0.80690000       0.27710000
    49  H          0.21280000       0.85770000       0.62060000
    50  H          0.78720000       0.35770000       0.87940000
    51  H          0.78720000       0.14230000       0.37940000
    52  H          0.21280000       0.64230000       0.12060000
    53  H          0.26210000       0.70310000       0.69200000
    54  H          0.73790000       0.20310000       0.80800000
    55  H          0.73790000       0.29690000       0.30800000
    56  H          0.26210000       0.79690000       0.19200000
    57  C          0.20579800       0.49894000       0.56772000
    58  C          0.79420200      -0.00106000       0.93228000
    59  C          0.79420200       0.50106000       0.43228000
    60  C          0.20579800       0.00106000       0.06772000
    61  C          0.15173800       0.50104000       0.48612000
    62  C          0.84826200       0.00104000       0.01388000
    63  C          0.84826200       0.49896000       0.51388000
    64  C          0.15173800      -0.00104000      -0.01388000
    65  C          0.13487800       0.32434000       0.37333000
    66  C          0.86512200       0.82434000       0.12667000
    67  C          0.86512200       0.67566000       0.62667000
    68  C          0.13487800       0.17566000       0.87333000
    69  H          0.15840000       0.20260000       0.34660000
    70  H          0.84160000       0.70260000       0.15340000
    71  H          0.84160000       0.79740000       0.65340000
    72  H          0.15840000       0.29740000       0.84660000
    73  C          0.08460900       0.32364000       0.30003000
    74  C          0.91539100       0.82364000       0.19997000
    75  C          0.91539100       0.67636000       0.69997000
    76  C          0.08460900       0.17636000       0.80003000
    77  H          0.07390000       0.20240000       0.22300000
    78  H          0.92610000       0.70240000       0.27700000
    79  H          0.92610000       0.79760000       0.77700000
    80  H          0.07390000       0.29760000       0.72300000
    81  C          0.04961800       0.49894000       0.33803000
    82  C          0.95038200      -0.00106000       0.16197000
    83  C          0.95038200       0.50106000       0.66197000
    84  C          0.04961800       0.00106000       0.83803000
    85  H          0.01490000       0.49750000       0.28820000
    86  H          0.98510000      -0.00250000       0.21180000
    87  H          0.98510000       0.50250000       0.71180000
    88  H          0.01490000       0.00250000       0.78820000
    89  C          0.06575900       0.67504000       0.44883000
    90  C          0.93424100       0.17504000       0.05117000
    91  C          0.93424100       0.32496000       0.55117000
    92  C          0.06575900       0.82496000       0.94883000
    93  H          0.04200000       0.79540000       0.47560000
    94  H          0.95800000       0.29540000       0.02440000
    95  H          0.95800000       0.20460000       0.52440000
    96  H          0.04200000       0.70460000       0.97560000
    97  C          0.11636900       0.67824000       0.52163000
    98  C          0.88363100       0.17824000       0.97837000
    99  C          0.88363100       0.32176000       0.47837000
   100  C          0.11636900       0.82176000       0.02163000
   101  H          0.12710000       0.80230000       0.59650000
   102  H          0.87290000       0.30230000       0.90350000
   103  H          0.87290000       0.19770000       0.40350000
   104  H          0.12710000       0.69770000       0.09650000
   105  N          0.28151700       0.28693000       0.62182000
   106  N          0.71848300       0.78693000       0.87818000
   107  N          0.71848300       0.71307000       0.37818000
   108  N          0.28151700       0.21307000       0.12182000
   109  H          0.28881000       0.35550000       0.72030000
   110  H          0.71119000       0.85550000       0.77970000
   111  H          0.71119000       0.64450000       0.27970000
   112  H          0.28881000       0.14450000       0.22030000
   113  N          0.45971700       0.93026000       0.82212000
   114  N          0.54028300       0.43026000       0.67788000
   115  N          0.54028300       0.06974000       0.17788000
   116  N          0.45971700       0.56974000       0.32212000
   117  N          0.23221700       0.30973000       0.53982000
   118  N          0.76778300       0.80973000       0.96018000
   119  N          0.76778300       0.69027000       0.46018000
   120  N          0.23221700       0.19027000       0.03982000
   121  O          0.30068600       0.01013000       0.43636160
   122  O          0.69931400       0.51013000       0.06363840
   123  O          0.69931400      -0.01013000       0.56363840
   124  O          0.30068600       0.48987000       0.93636160
