data_SADSIZ
_symmetry_space_group_name_H-M    'P1'
_symmetry_Int_Tables_number       1
loop_
_symmetry_equiv_pos_site_id
_symmetry_equiv_pos_as_xyz
1 x,y,z
_cell_length_a                   9.4082
_cell_length_b                   11.5796
_cell_length_c                   16.2032
_cell_angle_alpha                95.233
_cell_angle_beta                 103.092
_cell_angle_gamma                111.103
loop_
_atom_site_label
_atom_site_type_symbol
_atom_site_fract_x
_atom_site_fract_y
_atom_site_fract_z
     1  Cl         0.58661000       0.23261000       0.17411000
     2  Cl         0.41339000       0.76739000       0.82589000
     3  Cl         0.07331000       0.13191000       0.16421000
     4  Cl         0.92669000       0.86809000       0.83579000
     5  P          0.32911000       0.18311000       0.17401000
     6  P          0.67089000       0.81689000       0.82599000
     7  C          0.32905000       0.30824000       0.11443000
     8  C          0.67095000       0.69176000       0.88557000
     9  C          0.43025000       0.43114000       0.15413000
    10  C          0.56975000       0.56886000       0.84587000
    11  C          0.43275000       0.52784000       0.11073000
    12  C          0.56725000       0.47216000       0.88927000
    13  C          0.33705000       0.50335000       0.02723000
    14  C          0.66295000       0.49665000       0.97277000
    15  C          0.23595000       0.37985000       0.98757000
    16  C          0.76405000       0.62015000       0.01243000
    17  C          0.22815000       0.28344000       0.03143000
    18  C          0.77185000       0.71656000       0.96857000
    19  C          0.28415000       0.02374000       0.12353000
    20  C          0.71585000       0.97626000       0.87647000
    21  C          0.30835000      -0.00274000       0.04383000
    22  C          0.69165000       0.00274000       0.95617000
    23  C          0.26696000       0.87335000       0.00603000
    24  C          0.73304000       0.12665000      -0.00603000
    25  C          0.20796000       0.77696000       0.04954000
    26  C          0.79204000       0.22304000       0.95046000
    27  C          0.18895000       0.80416000       0.12993000
    28  C          0.81105000       0.19584000       0.87007000
    29  C          0.22305000       0.92796000       0.16673000
    30  C          0.77695000       0.07204000       0.83327000
    31  C          0.38645000       0.22194000       0.29103000
    32  C          0.61355000       0.77806000       0.70897000
    33  C          0.48115000       0.17034000       0.33913000
    34  C          0.51885000       0.82966000       0.66087000
    35  C          0.52425000       0.20255000       0.42993000
    36  C          0.47575000       0.79745000       0.57007000
    37  C          0.47736000       0.28785000       0.46853000
    38  C          0.52264000       0.71215000       0.53147000
    39  C          0.38305000       0.33955000       0.42053000
    40  C          0.61695000       0.66045000       0.57947000
    41  C          0.33465000       0.30494000       0.33093000
    42  C          0.66535000       0.69506000       0.66907000
    43  H          0.49745000       0.44824000       0.21113000
    44  H          0.50255000       0.55176000       0.78887000
    45  H          0.50065000       0.61214000       0.13823000
    46  H          0.49935000       0.38786000       0.86177000
    47  H          0.34025000       0.57055000      -0.00293000
    48  H          0.65975000       0.42945000       0.00293000
    49  H          0.17195000       0.36255000       0.92987000
    50  H          0.82805000       0.63745000       0.07013000
    51  H          0.15455000       0.19994000       0.00563000
    52  H          0.84545000       0.80006000      -0.00563000
    53  H          0.35295000       0.06394000       0.01533000
    54  H          0.64705000       0.93606000       0.98467000
    55  H          0.27886000       0.85435000       0.95037000
    56  H          0.72114000       0.14565000       0.04963000
    57  H          0.18056000       0.69196000       0.02374000
    58  H          0.81944000       0.30804000       0.97626000
    59  H          0.15245000       0.73816000       0.16043000
    60  H          0.84755000       0.26184000       0.83957000
    61  H          0.20465000       0.94646000       0.22073000
    62  H          0.79535000       0.05354000       0.77927000
    63  H          0.51645000       0.11424000       0.31153000
    64  H          0.48355000       0.88576000       0.68847000
    65  H          0.58555000       0.16545000       0.46423000
    66  H          0.41445000       0.83455000       0.53577000
    67  H          0.51056000       0.31185000       0.52963000
    68  H          0.48944000       0.68815000       0.47037000
    69  H          0.35155000       0.39825000       0.44833000
    70  H          0.64845000       0.60175000       0.55167000
    71  H          0.26675000       0.33764000       0.29723000
    72  H          0.73325000       0.66236000       0.70277000
    73  Cl         0.15271000       0.90371000       0.38231000
    74  Cl         0.84729000       0.09629000       0.61769000
    75  Cl         0.72121000       0.55901000       0.37211000
    76  Cl         0.27879000       0.44099000       0.62789000
    77  P          0.93661000       0.72811000       0.37281000
    78  P          0.06339000       0.27189000       0.62719000
    79  C         -0.00466000       0.74994000       0.48883000
    80  C          0.00466000       0.25006000       0.51117000
    81  C          0.05855000       0.67114000       0.52773000
    82  C          0.94145000       0.32886000       0.47227000
    83  C          0.10315000       0.68634000       0.61713000
    84  C          0.89685000       0.31366000       0.38287000
    85  C          0.08265000       0.77874000       0.66673000
    86  C          0.91735000       0.22126000       0.33327000
    87  C          0.01815000       0.85594000       0.62823000
    88  C         -0.01815000       0.14406000       0.37177000
    89  C         -0.02425000       0.84394000       0.53883000
    90  C          0.02425000       0.15606000       0.46117000
    91  C          0.00435000       0.63334000       0.30913000
    92  C         -0.00435000       0.36666000       0.69087000
    93  C          0.15995000       0.64254000       0.33303000
    94  C          0.84005000       0.35746000       0.66697000
    95  C          0.20925000       0.56924000       0.28373000
    96  C          0.79075000       0.43076000       0.71627000
    97  C          0.10425000       0.48624000       0.20883000
    98  C          0.89575000       0.51376000       0.79117000
    99  C          0.95045000       0.47764000       0.18483000
   100  C          0.04955000       0.52236000       0.81517000
   101  C          0.89865000       0.54944000       0.23373000
   102  C          0.10135000       0.45056000       0.76627000
   103  C          0.80934000       0.79694000       0.31333000
   104  C          0.19066000       0.20306000       0.68667000
   105  C          0.69165000       0.81604000       0.34483000
   106  C          0.30835000       0.18396000       0.65517000
   107  C          0.59685000       0.86885000       0.29773000
   108  C          0.40315000       0.13115000       0.70227000
   109  C          0.61765000       0.90074000       0.21943000
   110  C          0.38235000       0.09926000       0.78057000
   111  C          0.73385000       0.88114000       0.18903000
   112  C          0.26615000       0.11886000       0.81097000
   113  C          0.83135000       0.83024000       0.23493000
   114  C          0.16865000       0.16976000       0.76507000
   115  H          0.07155000       0.60664000       0.49333000
   116  H          0.92845000       0.39336000       0.50667000
   117  H          0.14775000       0.63284000       0.64393000
   118  H          0.85225000       0.36716000       0.35607000
   119  H          0.11325000       0.78904000       0.72783000
   120  H          0.88675000       0.21096000       0.27217000
   121  H          0.00225000       0.91834000       0.66293000
   122  H         -0.00225000       0.08166000       0.33707000
   123  H          0.93405000       0.89924000       0.51243000
   124  H          0.06595000       0.10076000       0.48757000
   125  H          0.23295000       0.69974000       0.38373000
   126  H          0.76705000       0.30026000       0.61627000
   127  H          0.31565000       0.57544000       0.30103000
   128  H          0.68435000       0.42456000       0.69897000
   129  H          0.13835000       0.43604000       0.17463000
   130  H          0.86165000       0.56396000       0.82537000
   131  H          0.87845000       0.42114000       0.13363000
   132  H          0.12155000       0.57886000       0.86637000
   133  H          0.79175000       0.54204000       0.21643000
   134  H          0.20825000       0.45796000       0.78357000
   135  H          0.67665000       0.79314000       0.39803000
   136  H          0.32335000       0.20686000       0.60197000
   137  H          0.51735000       0.88335000       0.31903000
   138  H          0.48265000       0.11665000       0.68097000
   139  H          0.55175000       0.93614000       0.18703000
   140  H          0.44825000       0.06386000       0.81297000
   141  H          0.74725000       0.90294000       0.13533000
   142  H          0.25275000       0.09706000       0.86467000
   143  H          0.91205000       0.81804000       0.21373000
   144  H          0.08795000       0.18196000       0.78627000
