data_SADSIZ01
_symmetry_space_group_name_H-M    'P1'
_symmetry_Int_Tables_number       1
loop_
_symmetry_equiv_pos_site_id
_symmetry_equiv_pos_as_xyz
1 x,y,z
_cell_length_a                   13.3383
_cell_length_b                   14.3763
_cell_length_c                   8.745417
_cell_angle_alpha                90.0
_cell_angle_beta                 102.533
_cell_angle_gamma                90.0
loop_
_atom_site_label
_atom_site_type_symbol
_atom_site_fract_x
_atom_site_fract_y
_atom_site_fract_z
     1  C          0.22238130       0.53306130       0.91598000
     2  C          0.77761870       0.03306130       0.58402000
     3  C          0.77761870       0.46693870       0.08402000
     4  C          0.22238130       0.96693870       0.41598000
     5  C          0.24135140       0.62160130       0.86378000
     6  C          0.75864860       0.12160130       0.63622000
     7  C          0.75864860       0.37839870       0.13622000
     8  C          0.24135140       0.87839870       0.36378000
     9  H          0.27660000       0.66670000       0.93490000
    10  H          0.72340000       0.16670000       0.56510000
    11  H          0.72340000       0.33330000       0.06510000
    12  H          0.27660000       0.83330000       0.43490000
    13  C          0.20772160       0.64273150       0.70568000
    14  C          0.79227840       0.14273150       0.79432000
    15  C          0.79227840       0.35726850       0.29432000
    16  C          0.20772160       0.85726850       0.20568000
    17  H          0.22260000       0.70190000       0.66770000
    18  H          0.77740000       0.20190000       0.83230000
    19  H          0.77740000       0.29810000       0.33230000
    20  H          0.22260000       0.79810000       0.16770000
    21  C          0.15305160       0.57853170       0.60388000
    22  C          0.84694840       0.07853170       0.89612000
    23  C          0.84694840       0.42146830       0.39612000
    24  C          0.15305160       0.92146830       0.10388000
    25  H          0.12780000       0.59480000       0.49710000
    26  H          0.87220000       0.09480000       0.00290000
    27  H          0.87220000       0.40520000       0.50290000
    28  H          0.12780000       0.90520000      -0.00290000
    29  C          0.13467160       0.49106160       0.65538000
    30  C          0.86532840      -0.00893840       0.84462000
    31  C          0.86532840       0.50893840       0.34462000
    32  C          0.13467160       0.00893840       0.15538000
    33  H          0.09710000       0.44710000       0.58440000
    34  H          0.90290000       0.94710000       0.91560000
    35  H          0.90290000       0.55290000       0.41560000
    36  H          0.09710000       0.05290000       0.08440000
    37  C          0.17130150       0.46706140       0.81208000
    38  C          0.82869850       0.96706140       0.68792000
    39  C          0.82869850       0.53293860       0.18792000
    40  C          0.17130150       0.03293860       0.31208000
    41  H          0.16130000       0.40590000       0.84730000
    42  H          0.83870000       0.90590000       0.65270000
    43  H          0.83870000       0.59410000       0.15270000
    44  H          0.16130000       0.09410000       0.34730000
    45  C          0.36166130       0.57025120       0.24772000
    46  C          0.63833870       0.07025120       0.25228000
    47  C          0.63833870       0.42974880       0.75228000
    48  C          0.36166130       0.92974880       0.74772000
    49  C          0.35582140       0.58843130       0.40152000
    50  C          0.64417860       0.08843130       0.09848000
    51  C          0.64417860       0.41156870       0.59848000
    52  C          0.35582140       0.91156870       0.90152000
    53  H          0.30050000       0.56440000       0.44190000
    54  H          0.69950000       0.06440000       0.05810000
    55  H          0.69950000       0.43560000       0.55810000
    56  H          0.30050000       0.93560000       0.94190000
    57  C          0.43117150       0.64190140       0.49562000
    58  C          0.56882850       0.14190140       0.00438000
    59  C          0.56882850       0.35809860       0.50438000
    60  C          0.43117150       0.85809860      -0.00438000
    61  H          0.42850000       0.65340000       0.60160000
    62  H          0.57150000       0.15340000       0.89840000
    63  H          0.57150000       0.34660000       0.39840000
    64  H          0.42850000       0.84660000       0.10160000
    65  C          0.51033140       0.67850130       0.43502000
    66  C          0.48966860       0.17850130       0.06498000
    67  C          0.48966860       0.32149870       0.56498000
    68  C          0.51033140       0.82149870       0.93502000
    69  H          0.56010000       0.71760000       0.49820000
    70  H          0.43990000       0.21760000       0.00180000
    71  H          0.43990000       0.28240000       0.50180000
    72  H          0.56010000       0.78240000      -0.00180000
    73  C          0.51739140       0.65857140       0.28362000
    74  C          0.48260860       0.15857140       0.21638000
    75  C          0.48260860       0.34142860       0.71638000
    76  C          0.51739140       0.84142860       0.78362000
    77  H          0.57290000       0.68280000       0.24380000
    78  H          0.42710000       0.18280000       0.25620000
    79  H          0.42710000       0.31720000       0.75620000
    80  H          0.57290000       0.81720000       0.74380000
    81  C          0.44377140       0.60319130       0.18882000
    82  C          0.55622860       0.10319130       0.31118000
    83  C          0.55622860       0.39680870       0.81118000
    84  C          0.44377140       0.89680870       0.68882000
    85  H          0.44950000       0.58810000       0.08530000
    86  H          0.55050000       0.08810000       0.41470000
    87  H          0.55050000       0.41190000       0.91470000
    88  H          0.44950000       0.91190000       0.58530000
    89  C          0.19023130       0.41732120       0.20582000
    90  C          0.80976870       0.91732120       0.29418000
    91  C          0.80976870       0.58267880       0.79418000
    92  C          0.19023130       0.08267880       0.70582000
    93  C          0.08837130       0.39790120       0.13642000
    94  C          0.91162870       0.89790120       0.36358000
    95  C          0.91162870       0.60209880       0.86358000
    96  C          0.08837130       0.10209880       0.63642000
    97  H          0.05450000       0.43100000       0.04590000
    98  H          0.94550000       0.93100000       0.45410000
    99  H          0.94550000       0.56900000       0.95410000
   100  H          0.05450000       0.06900000       0.54590000
   101  C          0.03664140       0.32956130       0.20092000
   102  C          0.96335860       0.82956130       0.29908000
   103  C          0.96335860       0.67043870       0.79908000
   104  C          0.03664140       0.17043870       0.70092000
   105  H          0.96780000       0.31440000       0.15210000
   106  H          0.03220000       0.81440000       0.34790000
   107  H          0.03220000       0.68560000       0.84790000
   108  H          0.96780000       0.18560000       0.65210000
   109  C          0.08458140       0.28356130       0.33542000
   110  C          0.91541860       0.78356130       0.16458000
   111  C          0.91541860       0.71643870       0.66458000
   112  C          0.08458140       0.21643870       0.83542000
   113  H          0.04820000       0.23780000       0.38000000
   114  H          0.95180000       0.73780000       0.12000000
   115  H          0.95180000       0.76220000       0.62000000
   116  H          0.04820000       0.26220000       0.88000000
   117  C          0.18552150       0.30398130       0.40552000
   118  C          0.81447850       0.80398130       0.09448000
   119  C          0.81447850       0.69601870       0.59448000
   120  C          0.18552150       0.19601870       0.90552000
   121  H          0.21810000       0.27250000       0.49860000
   122  H          0.78190000       0.77250000       0.00140000
   123  H          0.78190000       0.72750000       0.50140000
   124  H          0.21810000       0.22750000      -0.00140000
   125  C          0.23911140       0.37027130       0.34022000
   126  C          0.76088860       0.87027130       0.15978000
   127  C          0.76088860       0.62972870       0.65978000
   128  C          0.23911140       0.12972870       0.84022000
   129  H          0.30880000       0.38340000       0.38700000
   130  H          0.69120000       0.88340000       0.11300000
   131  H          0.69120000       0.61660000       0.61300000
   132  H          0.30880000       0.11660000       0.88700000
   133  Cl         0.14271300       0.61325300       0.16899500
   134  Cl         0.85728700       0.11325300       0.33100500
   135  Cl         0.85728700       0.38674700       0.83100500
   136  Cl         0.14271300       0.88674700       0.66899500
   137  Cl         0.37086300       0.39823300       0.07639500
   138  Cl         0.62913700       0.89823300       0.42360500
   139  Cl         0.62913700       0.60176700       0.92360500
   140  Cl         0.37086300       0.10176700       0.57639500
   141  P          0.26018300       0.50460300       0.12233500
   142  P          0.73981700       0.00460300       0.37766500
   143  P          0.73981700       0.49539700       0.87766500
   144  P          0.26018300      -0.00460300       0.62233500
