data_SADSIZ02
_symmetry_space_group_name_H-M    'P1'
_symmetry_Int_Tables_number       1
loop_
_symmetry_equiv_pos_site_id
_symmetry_equiv_pos_as_xyz
1 x,y,z
_cell_length_a                   10.25194
_cell_length_b                   12.14665
_cell_length_c                   12.89034
_cell_angle_alpha                90.0
_cell_angle_beta                 90.0
_cell_angle_gamma                90.0
loop_
_atom_site_label
_atom_site_type_symbol
_atom_site_fract_x
_atom_site_fract_y
_atom_site_fract_z
     1  P          0.39664600       0.51709500       0.50122400
     2  P          0.10335400       0.48290500       0.00122400
     3  P          0.60335400       0.01709500      -0.00122400
     4  P          0.89664600       0.98290500       0.49877600
     5  Cl         0.18823500       0.50525600       0.44355500
     6  Cl         0.31176500       0.49474400       0.94355500
     7  Cl         0.81176500       0.00525600       0.05644500
     8  Cl         0.68823500      -0.00525600       0.55644500
     9  Cl         0.60512500       0.53317500       0.55777500
    10  Cl         0.89487500       0.46682500       0.05777500
    11  Cl         0.39487500       0.03317500       0.94222500
    12  Cl         0.10512500       0.96682500       0.44222500
    13  C          0.45262000       0.51952000       0.36815170
    14  C          0.04738000       0.48048000       0.86815170
    15  C          0.54738000       0.01952000       0.13184830
    16  C          0.95262000       0.98048000       0.63184830
    17  C          0.41023000       0.60242000       0.30083190
    18  C          0.08977000       0.39758000       0.80083190
    19  C          0.58977000       0.10242000       0.19916810
    20  C          0.91023000       0.89758000       0.69916810
    21  H          0.35260000       0.65810000       0.32500000
    22  H          0.14740000       0.34190000       0.82500000
    23  H          0.64740000       0.15810000       0.17500000
    24  H          0.85260000       0.84190000       0.67500000
    25  C          0.45263000       0.60293000       0.19862000
    26  C          0.04737000       0.39707000       0.69862000
    27  C          0.54737000       0.10293000       0.30138000
    28  C          0.95263000       0.89707000       0.80138000
    29  H          0.42550000       0.65980000       0.15300000
    30  H          0.07450000       0.34020000       0.65300000
    31  H          0.57450000       0.15980000       0.34700000
    32  H          0.92550000       0.84020000       0.84700000
    33  C          0.53483000       0.51993000       0.16305190
    34  C          0.96517000       0.48007000       0.66305190
    35  C          0.46517000       0.01993000       0.33694810
    36  C          0.03483000       0.98007000       0.83694810
    37  H          0.56330000       0.52040000       0.09290000
    38  H          0.93670000       0.47960000       0.59290000
    39  H          0.43670000       0.02040000       0.40710000
    40  H          0.06330000       0.97960000       0.90710000
    41  C          0.57533000       0.43673000       0.22892000
    42  C          0.92467000       0.56327000       0.72892000
    43  C          0.42467000       0.93673000       0.27108000
    44  C          0.07533000       0.06327000       0.77108000
    45  H          0.62960000       0.37930000       0.20350000
    46  H          0.87040000       0.62070000       0.70350000
    47  H          0.37040000       0.87930000       0.29650000
    48  H          0.12960000       0.12070000       0.79650000
    49  C          0.53642000       0.43702000       0.33262000
    50  C          0.96358000       0.56298000       0.83262000
    51  C          0.46358000       0.93702000       0.16738000
    52  C          0.03642000       0.06298000       0.66738000
    53  H          0.56660000       0.38160000       0.37880000
    54  H          0.93340000       0.61840000       0.87880000
    55  H          0.43340000       0.88160000       0.12120000
    56  H          0.06660000       0.11840000       0.62120000
    57  C          0.38092000       0.38484180       0.56622000
    58  C          0.11908000       0.61515820       0.06622000
    59  C          0.61908000       0.88484180       0.93378000
    60  C          0.88092000       0.11515820       0.43378000
    61  C          0.33933000       0.29322000       0.50912000
    62  C          0.16067000       0.70678000       0.00912000
    63  C          0.66067000       0.79322000      -0.00912000
    64  C          0.83933000       0.20678000       0.49088000
    65  H          0.31630000       0.30070000       0.43810000
    66  H          0.18370000       0.69930000       0.93810000
    67  H          0.68370000       0.80070000       0.06190000
    68  H          0.81630000       0.19930000       0.56190000
    69  C          0.33193000       0.19082000       0.55773000
    70  C          0.16807000       0.80918000       0.05773000
    71  C          0.66807000       0.69082000       0.94227000
    72  C          0.83193000       0.30918000       0.44227000
    73  H          0.30530000       0.12810000       0.51900000
    74  H          0.19470000       0.87190000       0.01900000
    75  H          0.69470000       0.62810000       0.98100000
    76  H          0.80530000       0.37190000       0.48100000
    77  C          0.36283000       0.17972000       0.66083000
    78  C          0.13717000       0.82028000       0.16083000
    79  C          0.63717000       0.67972000       0.83917000
    80  C          0.86283000       0.32028000       0.33917000
    81  H          0.35850000       0.10930000       0.69280000
    82  H          0.14150000       0.89070000       0.19280000
    83  H          0.64150000       0.60930000       0.80720000
    84  H          0.85850000       0.39070000       0.30720000
    85  C          0.40043000       0.27083000       0.71833000
    86  C          0.09957000       0.72917000       0.21833000
    87  C          0.59957000       0.77083000       0.78167000
    88  C          0.90043000       0.22917000       0.28167000
    89  H          0.41890000       0.26330000       0.79020000
    90  H          0.08110000       0.73670000       0.29020000
    91  H          0.58110000       0.76330000       0.70980000
    92  H          0.91890000       0.23670000       0.20980000
    93  C          0.41103000       0.37362000       0.67052000
    94  C          0.08897000       0.62638000       0.17052000
    95  C          0.58897000       0.87362000       0.82948000
    96  C          0.91103000       0.12638000       0.32948000
    97  H          0.43890000       0.43570000       0.70940000
    98  H          0.06110000       0.56430000       0.20940000
    99  H          0.56110000       0.93570000       0.79060000
   100  H          0.93890000       0.06430000       0.29060000
   101  C          0.35642000       0.64473180       0.56622000
   102  C          0.14358000       0.35526820       0.06622000
   103  C          0.64358000       0.14473180       0.93378000
   104  C          0.85642000       0.85526820       0.43378000
   105  C          0.26553000       0.64342000       0.64672000
   106  C          0.23447000       0.35658000       0.14672000
   107  C          0.73447000       0.14342000       0.85328000
   108  C          0.76553000       0.85658000       0.35328000
   109  H          0.22600000       0.57610000       0.66740000
   110  H          0.27400000       0.42390000       0.16740000
   111  H          0.77400000       0.07610000       0.83260000
   112  H          0.72600000       0.92390000       0.33260000
   113  C          0.23343000       0.74122000       0.69632000
   114  C          0.26657000       0.25878000       0.19632000
   115  C          0.76657000       0.24122000       0.80368000
   116  C          0.73343000       0.75878000       0.30368000
   117  H          0.17280000       0.74060000       0.75190000
   118  H          0.32720000       0.25940000       0.25190000
   119  H          0.82720000       0.24060000       0.74810000
   120  H          0.67280000       0.75940000       0.24810000
   121  C          0.28953000       0.84002000       0.66502000
   122  C          0.21047000       0.15998000       0.16502000
   123  C          0.71047000       0.34002000       0.83498000
   124  C          0.78953000       0.65998000       0.33498000
   125  H          0.26600000       0.90680000       0.69850000
   126  H          0.23400000       0.09320000       0.19850000
   127  H          0.73400000       0.40680000       0.80150000
   128  H          0.76600000       0.59320000       0.30150000
   129  C          0.37943000       0.84112000       0.58492000
   130  C          0.12057000       0.15888000       0.08492000
   131  C          0.62057000       0.34112000       0.91508000
   132  C          0.87943000       0.65888000       0.41508000
   133  H          0.41700000       0.90880000       0.56330000
   134  H          0.08300000       0.09120000       0.06330000
   135  H          0.58300000       0.40880000       0.93670000
   136  H          0.91700000       0.59120000       0.43670000
   137  C          0.41512000       0.74352000       0.53592000
   138  C          0.08488000       0.25648000       0.03592000
   139  C          0.58488000       0.24352000       0.96408000
   140  C          0.91512000       0.75648000       0.46408000
   141  H          0.47880000       0.74400000       0.48240000
   142  H          0.02120000       0.25600000       0.98240000
   143  H          0.52120000       0.24400000       0.01760000
   144  H          0.97880000       0.75600000       0.51760000
