data_SADTIC05
_symmetry_space_group_name_H-M    'P1'
_symmetry_Int_Tables_number       1
loop_
_symmetry_equiv_pos_site_id
_symmetry_equiv_pos_as_xyz
1 x,y,z
_cell_length_a                   4.9873
_cell_length_b                   7.5924
_cell_length_c                   11.7186
_cell_angle_alpha                72.9266
_cell_angle_beta                 89.4496
_cell_angle_gamma                71.1576
loop_
_atom_site_label
_atom_site_type_symbol
_atom_site_fract_x
_atom_site_fract_y
_atom_site_fract_z
     1  Cl         0.81739190       0.76494120       0.05574700
     2  Cl         0.18260810       0.23505880       0.94425300
     3  O          0.55916000       0.79073000       0.82548810
     4  O          0.44084000       0.20927000       0.17451190
     5  O          0.70555000       0.43224000       0.22970190
     6  O          0.29445000       0.56776000       0.77029810
     7  C          0.53707000       0.65835000       0.90797000
     8  C          0.46293000       0.34165000       0.09203000
     9  C          0.64546000       0.61754000       0.03013000
    10  C          0.35454000       0.38246000       0.96987000
    11  C          0.61087000       0.47084000       0.11803000
    12  C          0.38913000       0.52916000       0.88197000
    13  H          0.68190000       0.33160000       0.28340000
    14  H          0.31810000       0.66840000       0.71660000
    15  H          0.31990000       0.66960000       0.71660000
    16  H          0.68010000       0.33040000       0.28340000
    17  O          0.62105000       0.17693000       0.41253180
    18  O          0.37895000       0.82307000       0.58746820
    19  N          0.68036000       0.08364000       0.61552000
    20  N          0.31964000       0.91636000       0.38448000
    21  C          0.71417000       0.18544000       0.50753000
    22  C          0.28583000       0.81456000       0.49247000
    23  C          0.87789000       0.31206000       0.51803000
    24  C          0.12211000       0.68794000       0.48197000
    25  C          0.90891000       0.28627000       0.65093000
    26  C          0.09109000       0.71373000       0.34907000
    27  C          0.81351000       0.11646000       0.71183000
    28  C          0.18649000       0.88354000       0.28817000
    29  H          0.61960000      -0.00940000       0.62520000
    30  H          0.38040000       0.00940000       0.37480000
    31  H          0.05070000       0.26840000       0.48930000
    32  H          0.94930000       0.73160000       0.51070000
    33  H          0.80970000       0.44750000       0.46930000
    34  H          0.19030000       0.55250000       0.53070000
    35  H          0.82310000       0.39760000       0.67340000
    36  H          0.17690000       0.60240000       0.32660000
    37  H          0.10910000       0.25360000       0.68240000
    38  H          0.89090000       0.74640000       0.31760000
    39  H         -0.00910000       0.00550000       0.74530000
    40  H          0.00910000      -0.00550000       0.25470000
    41  H          0.68180000       0.14850000       0.77230000
    42  H          0.31820000       0.85150000       0.22770000
