data_SADTIC
_symmetry_space_group_name_H-M    'P1'
_symmetry_Int_Tables_number       1
loop_
_symmetry_equiv_pos_site_id
_symmetry_equiv_pos_as_xyz
1 x,y,z
_cell_length_a                   4.96653
_cell_length_b                   7.47674
_cell_length_c                   11.84456
_cell_angle_alpha                106.790419
_cell_angle_beta                 90.2992
_cell_angle_gamma                108.7342
loop_
_atom_site_label
_atom_site_type_symbol
_atom_site_fract_x
_atom_site_fract_y
_atom_site_fract_z
     1  Cl         0.08647500       0.76633400       0.94308200
     2  Cl         0.91352500       0.23366600       0.05691800
     3  O          0.85407190       0.79167130       0.17509700
     4  O          0.14592810       0.20832870       0.82490300
     5  O          0.63936170       0.43116130       0.76924600
     6  O          0.36063830       0.56883870       0.23075400
     7  C          0.69752000       0.65861150       0.09265800
     8  C          0.30248000       0.34138850       0.90734200
     9  C          0.76472000       0.61826140       0.96995800
    10  C          0.23528000       0.38173860       0.03004200
    11  C          0.58242000       0.47035140       0.88085800
    12  C          0.41758000       0.52964860       0.11914200
    13  H          0.51240000       0.33830000       0.71911800
    14  H          0.48760000       0.66170000       0.28088200
    15  O          0.29637160       0.17553120       0.58756600
    16  O          0.70362840       0.82446880       0.41243400
    17  N          0.26260190       0.08485140       0.38446700
    18  N          0.73739810       0.91514860       0.61553300
    19  C          0.39885190       0.18575140       0.49228800
    20  C          0.60114810       0.81424860       0.50771200
    21  C          0.69552000       0.31323150       0.48221900
    22  C          0.30448000       0.68676850       0.51778100
    23  H          0.84070000       0.26570000       0.50960000
    24  H          0.15930000       0.73430000       0.49040000
    25  H          0.73310000       0.45310000       0.52990000
    26  H          0.26690000       0.54690000       0.47010000
    27  C          0.70072000       0.29287180       0.34969900
    28  C          0.29928000       0.70712820       0.65030100
    29  H          0.69490000       0.41530000       0.33480000
    30  H          0.30510000       0.58470000       0.66520000
    31  H          0.87610000       0.26770000       0.32110000
    32  H          0.12390000       0.73230000       0.67890000
    33  C          0.43382000       0.11639170       0.28707900
    34  C          0.56618000       0.88360830       0.71292100
    35  H          0.33000000       0.14840000       0.22830000
    36  H          0.67000000       0.85160000       0.77170000
    37  H          0.48450000      -0.00230000       0.24660000
    38  H          0.51550000       0.00230000       0.75340000
    39  H          0.11840000       0.01430000       0.37621600
    40  H          0.88160000      -0.01430000       0.62378400
