data_SADTIC09
_symmetry_space_group_name_H-M    'P1'
_symmetry_Int_Tables_number       1
loop_
_symmetry_equiv_pos_site_id
_symmetry_equiv_pos_as_xyz
1 x,y,z
_cell_length_a                   7.36938
_cell_length_b                   10.391911
_cell_length_c                   11.797012
_cell_angle_alpha                98.4057
_cell_angle_beta                 106.5858
_cell_angle_gamma                108.9168
loop_
_atom_site_label
_atom_site_type_symbol
_atom_site_fract_x
_atom_site_fract_y
_atom_site_fract_z
     1  Cl         0.66227900       0.70485600       0.43548500
     2  Cl         0.33772100       0.29514400       0.56451500
     3  Cl         0.60905900       0.07902600       0.32048500
     4  Cl         0.39094100       0.92097400       0.67951500
     5  O          0.42612000       0.21837170       0.14328140
     6  O          0.57388000       0.78162830       0.85671860
     7  H          0.38870000       0.26720000       0.09790000
     8  H          0.61130000       0.73280000       0.90210000
     9  O          0.83292000       0.30098170       0.55232140
    10  O          0.16708000       0.69901830       0.44767860
    11  O          0.86193000       0.56959170       0.60941140
    12  O          0.13807000       0.43040830       0.39058860
    13  H          0.91710000       0.52490000       0.65180000
    14  H          0.08290000       0.47510000       0.34820000
    15  O          0.44523000       0.48435180       0.20087140
    16  O          0.55477000       0.51564820       0.79912860
    17  C          0.52963000       0.29792000       0.25612000
    18  C          0.47037000       0.70208000       0.74388000
    19  C          0.62263000       0.25032000       0.34662000
    20  C          0.37737000       0.74968000       0.65338000
    21  C          0.74233000       0.34002000       0.46992000
    22  C          0.25767000       0.65998000       0.53008000
    23  C          0.75483000       0.48932000       0.49702000
    24  C          0.24517000       0.51068000       0.50298000
    25  C          0.65573000       0.53602000       0.40692000
    26  C          0.34427000       0.46398000       0.59308000
    27  C          0.53813000       0.44632000       0.28322000
    28  C          0.46187000       0.55368000       0.71678000
    29  O          0.24743000       0.29597170       0.96095860
    30  O          0.75257000       0.70402830       0.03904140
    31  N          0.03863000       0.20592000       0.75962830
    32  N          0.96137000       0.79408000       0.24037170
    33  H          0.03060000       0.28560000       0.74680000
    34  H         -0.03060000       0.71440000       0.25320000
    35  C          0.93686000       0.07382000       0.66398000
    36  C          0.06314000       0.92618000       0.33602000
    37  H          0.01260000       0.07050000       0.60730000
    38  H         -0.01260000       0.92950000       0.39270000
    39  H          0.79430000       0.05990000       0.61660000
    40  H          0.20570000       0.94010000       0.38340000
    41  C          0.94096000       0.96288000       0.73688000
    42  C          0.05904000       0.03712000       0.26312000
    43  H          0.81050000       0.92370000       0.75140000
    44  H          0.18950000       0.07630000       0.24860000
    45  H          0.96510000       0.88480000       0.69310000
    46  H          0.03490000       0.11520000       0.30690000
    47  C          0.11934000       0.04502000       0.85708000
    48  C          0.88066000       0.95498000       0.14292000
    49  H          0.08720000       0.01380000       0.92700000
    50  H          0.91280000      -0.01380000       0.07300000
    51  H          0.24580000       0.03230000       0.85490000
    52  H          0.75420000       0.96770000       0.14510000
    53  C          0.14453000       0.19652000       0.86778000
    54  C          0.85547000       0.80348000       0.13222000
    55  O          0.07152000       0.49774160       0.78368140
    56  O          0.92848000       0.50225840       0.21631860
    57  N          0.24893000       0.58073190      -0.01057830
    58  N          0.75107000       0.41926810       0.01057830
    59  H          0.28430000       0.50860000      -0.00190000
    60  H          0.71570000       0.49140000       0.00190000
    61  C          0.30564000       0.70062000       0.09182000
    62  C          0.69436000       0.29938000       0.90818000
    63  H          0.45150000       0.73280000       0.14470000
    64  H          0.54850000       0.26720000       0.85530000
    65  H          0.21850000       0.67730000       0.14200000
    66  H          0.78150000       0.32270000       0.85800000
    67  C          0.26714000       0.81202000       0.02722000
    68  C          0.73286000       0.18798000       0.97278000
    69  H          0.21150000       0.86900000       0.07150000
    70  H          0.78850000       0.13100000       0.92850000
    71  H          0.39520000       0.87570000       0.02130000
    72  H          0.60480000       0.12430000       0.97870000
    73  C          0.11024000       0.72602000       0.90032000
    74  C          0.88976000       0.27398000       0.09968000
    75  H         -0.03110000       0.71040000       0.89730000
    76  H          0.03110000       0.28960000       0.10270000
    77  H          0.13720000       0.77380000       0.83670000
    78  H          0.86280000       0.22620000       0.16330000
    79  C          0.14043000       0.58922000       0.88282000
    80  C          0.85957000       0.41078000       0.11718000
