data_SADTIC03
_symmetry_space_group_name_H-M    'P1'
_symmetry_Int_Tables_number       1
loop_
_symmetry_equiv_pos_site_id
_symmetry_equiv_pos_as_xyz
1 x,y,z
_cell_length_a                   8.15759
_cell_length_b                   10.367112
_cell_length_c                   11.092113
_cell_angle_alpha                74.2905
_cell_angle_beta                 75.6555
_cell_angle_gamma                67.4425
loop_
_atom_site_label
_atom_site_type_symbol
_atom_site_fract_x
_atom_site_fract_y
_atom_site_fract_z
     1  Cl         0.01946900       0.91448700       0.29752700
     2  Cl         0.98053100       0.08551300       0.70247300
     3  Cl         0.57807900       0.29329700       0.40835600
     4  Cl         0.42192100       0.70670300       0.59164400
     5  O          0.34383000       0.78090190       0.12180170
     6  O          0.65617000       0.21909810       0.87819830
     7  O          0.00983000       0.68682000       0.52245180
     8  O          0.99017000       0.31318000       0.47754820
     9  O          0.24993000       0.42552000       0.58217170
    10  O          0.75007000       0.57448000       0.41782830
    11  O          0.57373000       0.51432000       0.17592170
    12  O          0.42627000       0.48568000       0.82407830
    13  C          0.31353000       0.69863000       0.23272000
    14  C          0.68647000       0.30137000       0.76728000
    15  C          0.17243000       0.74463000       0.32192000
    16  C          0.82757000       0.25537000       0.67808000
    17  C          0.13963000       0.65183000       0.44272000
    18  C          0.86037000       0.34817000       0.55728000
    19  C          0.27543000       0.50483000       0.46912000
    20  C          0.72457000       0.49517000       0.53088000
    21  C          0.41723000       0.46023000       0.38032000
    22  C          0.58277000       0.53977000       0.61968000
    23  C          0.44693000       0.54963000       0.25812000
    24  C          0.55307000       0.45037000       0.74188000
    25  H          0.43550000       0.73430000       0.06230000
    26  H          0.56450000       0.26570000       0.93770000
    27  H          0.16050000       0.46440000       0.63530000
    28  H          0.83950000       0.53560000       0.36470000
    29  O          0.59233000       0.70192000       0.93526830
    30  O          0.40767000       0.29808000       0.06473170
    31  N          0.70923000       0.78633000       0.73518000
    32  N          0.29077000       0.21367000       0.26482000
    33  C          0.67674000       0.91333000       0.63617000
    34  C          0.32326000       0.08667000       0.36383000
    35  C          0.51526000       0.01895000       0.69746000
    36  C          0.48474000       0.98105000       0.30254000
    37  C          0.45765000       0.94543000       0.82607000
    38  C          0.54235000       0.05457000       0.17393000
    39  C          0.59153000       0.79703000       0.83978000
    40  C          0.40847000       0.20297000       0.16022000
    41  H          0.78940000       0.72130000       0.72470000
    42  H          0.21060000       0.27870000       0.27530000
    43  H          0.65940000       0.89630000       0.55770000
    44  H          0.34060000       0.10370000       0.44230000
    45  H          0.77840000       0.94930000       0.60770000
    46  H          0.22160000       0.05070000       0.39230000
    47  H          0.48450000       0.09940000       0.67560000
    48  H          0.51550000       0.90060000       0.32440000
    49  H          0.40870000       0.03360000       0.64550000
    50  H          0.59130000       0.96640000       0.35450000
    51  H          0.34750000       0.94040000       0.83660000
    52  H          0.65250000       0.05960000       0.16340000
    53  H          0.44660000       0.98350000       0.89360000
    54  H          0.55340000       0.01650000       0.10640000
    55  O          0.97718000       0.49973190       0.75802160
    56  O          0.02282000       0.50026810       0.24197840
    57  N          0.86347000       0.41513000       0.95992000
    58  N          0.13653000       0.58487000       0.04008000
    59  C          0.90825000       0.29353000       0.06333000
    60  C          0.09175000       0.70647000       0.93667000
    61  C          0.06225000       0.18323000      -0.00107000
    62  C          0.93775000       0.81677000       0.00107000
    63  C          0.13674000       0.26923000       0.87803000
    64  C          0.86326000       0.73077000       0.12197000
    65  C          0.98597000       0.40703000       0.85682000
    66  C          0.01403000       0.59297000       0.14318000
    67  H          0.78270000       0.47830000       0.97020000
    68  H          0.21730000       0.52170000       0.02980000
    69  H          0.81070000       0.25530000       0.10120000
    70  H          0.18930000       0.74470000       0.89880000
    71  H          0.94760000       0.31730000       0.12730000
    72  H          0.05240000       0.68270000       0.87270000
    73  H          0.15140000       0.12530000       0.05530000
    74  H          0.84860000       0.87470000       0.94470000
    75  H          0.01840000       0.11440000       0.98130000
    76  H          0.98160000       0.88560000       0.01870000
    77  H          0.17740000       0.22430000       0.80530000
    78  H          0.82260000       0.77570000       0.19470000
    79  H          0.23740000       0.28730000       0.88930000
    80  H          0.76260000       0.71270000       0.11070000
