data_SADTIC07
_symmetry_space_group_name_H-M    'P1'
_symmetry_Int_Tables_number       1
loop_
_symmetry_equiv_pos_site_id
_symmetry_equiv_pos_as_xyz
1 x,y,z
_cell_length_a                   4.690417
_cell_length_b                   8.9213
_cell_length_c                   9.8333
_cell_angle_alpha                103.3577
_cell_angle_beta                 96.4477
_cell_angle_gamma                93.9847
loop_
_atom_site_label
_atom_site_type_symbol
_atom_site_fract_x
_atom_site_fract_y
_atom_site_fract_z
     1  Cl         0.40381130       0.24243600       0.04031600
     2  Cl         0.59618870       0.75756400       0.95968400
     3  O          0.95736000       0.23842000       0.80441820
     4  O          0.04264000       0.76158000       0.19558180
     5  O          0.41074000       0.55262000       0.23311190
     6  O          0.58926000       0.44738000       0.76688810
     7  C         -0.02065000       0.35553000       0.89658000
     8  C          0.02065000       0.64447000       0.10342000
     9  C          0.18825000       0.38693000       0.02263000
    10  C          0.81175000       0.61307000       0.97737000
    11  C          0.21715000       0.52173000       0.11993000
    12  C          0.78285000       0.47827000       0.88007000
    13  H          0.42680000       0.65250000       0.29040000
    14  H          0.57320000       0.34750000       0.70960000
    15  O          0.50044000       0.80802000       0.41721190
    16  O          0.49956000       0.19198000       0.58278810
    17  N          0.81164000       0.92692000       0.61292000
    18  N          0.18836000       0.07308000       0.38708000
    19  C          0.70745000       0.80813000       0.50743000
    20  C          0.29255000       0.19187000       0.49257000
    21  C          0.88256000       0.67483000       0.51403000
    22  C          0.11744000       0.32517000       0.48597000
    23  C          0.06746000       0.72373000       0.65683000
    24  C          0.93254000       0.27627000       0.34317000
    25  C          0.06376000       0.89963000       0.70063000
    26  C          0.93624000       0.10037000       0.29937000
    27  H          0.76760000       0.00540000       0.62430000
    28  H          0.23240000      -0.00540000       0.37570000
    29  H          0.75560000       0.56830000       0.49530000
    30  H          0.24440000       0.43170000       0.50470000
    31  H         -0.01240000       0.65930000       0.43730000
    32  H          0.01240000       0.34070000       0.56270000
    33  H          0.27460000       0.69630000       0.65630000
    34  H          0.72540000       0.30370000       0.34370000
    35  H         -0.01940000       0.67930000       0.72330000
    36  H          0.01940000       0.32070000       0.27670000
    37  H          0.03860000       0.93530000       0.80330000
    38  H          0.96140000       0.06470000       0.19670000
    39  H          0.23460000       0.94830000       0.68130000
    40  H          0.76540000       0.05170000       0.31870000
