data_SAGXOP03
_symmetry_space_group_name_H-M    'P1'
_symmetry_Int_Tables_number       1
loop_
_symmetry_equiv_pos_site_id
_symmetry_equiv_pos_as_xyz
1 x,y,z
_cell_length_a                   9.427214
_cell_length_b                   10.389015
_cell_length_c                   14.3703
_cell_angle_alpha                90.0
_cell_angle_beta                 102.4772
_cell_angle_gamma                90.0
loop_
_atom_site_label
_atom_site_type_symbol
_atom_site_fract_x
_atom_site_fract_y
_atom_site_fract_z
     1  C         -0.00334000       0.44683000       0.13203000
     2  C          0.00334000       0.44683000       0.36797000
     3  C          0.49666000       0.94683000       0.13203000
     4  C          0.50334000       0.94683000       0.36797000
     5  C          0.00334000       0.55317000       0.86797000
     6  C         -0.00334000       0.55317000       0.63203000
     7  C          0.50334000       0.05317000       0.86797000
     8  C          0.49666000       0.05317000       0.63203000
     9  C          0.87646000       0.36763000       0.10333000
    10  C          0.12354000       0.36763000       0.39667000
    11  C          0.37646000       0.86763000       0.10333000
    12  C          0.62354000       0.86763000       0.39667000
    13  C          0.12354000       0.63237000       0.89667000
    14  C          0.87646000       0.63237000       0.60333000
    15  C          0.62354000       0.13237000       0.89667000
    16  C          0.37646000       0.13237000       0.60333000
    17  H          0.88790000       0.27890000       0.10970000
    18  H          0.11210000       0.27890000       0.39030000
    19  H          0.38790000       0.77890000       0.10970000
    20  H          0.61210000       0.77890000       0.39030000
    21  H          0.11210000       0.72110000       0.89030000
    22  H          0.88790000       0.72110000       0.60970000
    23  H          0.61210000       0.22110000       0.89030000
    24  H          0.38790000       0.22110000       0.60970000
    25  C          0.13764000       0.39183000       0.17103000
    26  C          0.86236000       0.39183000       0.32897000
    27  C          0.63764000       0.89183000       0.17103000
    28  C          0.36236000       0.89183000       0.32897000
    29  C          0.86236000       0.60817000       0.82897000
    30  C          0.13764000       0.60817000       0.67103000
    31  C          0.36236000       0.10817000       0.82897000
    32  C          0.63764000       0.10817000       0.67103000
    33  H          0.14650000       0.30380000       0.18280000
    34  H          0.85350000       0.30380000       0.31720000
    35  H          0.64650000       0.80380000       0.18280000
    36  H          0.35350000       0.80380000       0.31720000
    37  H          0.85350000       0.69620000       0.81720000
    38  H          0.14650000       0.69620000       0.68280000
    39  H          0.35350000       0.19620000       0.81720000
    40  H          0.64650000       0.19620000       0.68280000
    41  N          0.24953000       0.46333000       0.18942000
    42  N          0.75047000       0.46333000       0.31058000
    43  N          0.74953000       0.96333000       0.18942000
    44  N          0.25047000       0.96333000       0.31058000
    45  N          0.75047000       0.53667000       0.81058000
    46  N          0.24953000       0.53667000       0.68942000
    47  N          0.25047000       0.03667000       0.81058000
    48  N          0.74953000       0.03667000       0.68942000
    49  N          0.38044000       0.40483000       0.22483000
    50  N          0.61956000       0.40483000       0.27517000
    51  N          0.88044000       0.90483000       0.22483000
    52  N          0.11956000       0.90483000       0.27517000
    53  N          0.61956000       0.59517000       0.77517000
    54  N          0.38044000       0.59517000       0.72483000
    55  N          0.11956000       0.09517000       0.77517000
    56  N          0.88044000       0.09517000       0.72483000
    57  H          0.38140000       0.32920000       0.24720000
    58  H          0.61860000       0.32920000       0.25280000
    59  H          0.88140000       0.82920000       0.24720000
    60  H          0.11860000       0.82920000       0.25280000
    61  H          0.61860000       0.67080000       0.75280000
    62  H          0.38140000       0.67080000       0.74720000
    63  H          0.11860000       0.17080000       0.75280000
    64  H          0.88140000       0.17080000       0.74720000
    65  C          0.97566000       0.57953000       0.12272000
    66  C          0.02434000       0.57953000       0.37728000
    67  C          0.47566000       0.07953000       0.12272000
    68  C          0.52434000       0.07953000       0.37728000
    69  C          0.02434000       0.42047000       0.87728000
    70  C          0.97566000       0.42047000       0.62272000
    71  C          0.52434000       0.92047000       0.87728000
    72  C          0.47566000       0.92047000       0.62272000
    73  C          0.74076000       0.41724000       0.06583000
    74  C          0.25924000       0.41724000       0.43417000
    75  C          0.24076000       0.91724000       0.06583000
    76  C          0.75924000       0.91724000       0.43417000
    77  C          0.25924000       0.58276000       0.93417000
    78  C          0.74076000       0.58276000       0.56583000
    79  C          0.75924000       0.08276000       0.93417000
    80  C          0.24076000       0.08276000       0.56583000
    81  H          0.66150000       0.36280000       0.04690000
    82  H          0.33850000       0.36280000       0.45310000
    83  H          0.16150000       0.86280000       0.04690000
    84  H          0.83850000       0.86280000       0.45310000
    85  H          0.33850000       0.63720000       0.95310000
    86  H          0.66150000       0.63720000       0.54690000
    87  H          0.83850000       0.13720000       0.95310000
    88  H          0.16150000       0.13720000       0.54690000
    89  C          0.72405000       0.54854000       0.05673000
    90  C          0.27595000       0.54854000       0.44327000
    91  C          0.22405000       0.04854000       0.05673000
    92  C          0.77595000       0.04854000       0.44327000
    93  C          0.27595000       0.45146000       0.94327000
    94  C          0.72405000       0.45146000       0.55673000
    95  C          0.77595000       0.95146000       0.94327000
    96  C          0.22405000       0.95146000       0.55673000
    97  H          0.63300000       0.58290000       0.03080000
    98  H          0.36700000       0.58290000       0.46920000
    99  H          0.13300000       0.08290000       0.03080000
   100  H          0.86700000       0.08290000       0.46920000
   101  H          0.36700000       0.41710000       0.96920000
   102  H          0.63300000       0.41710000       0.53080000
   103  H          0.86700000       0.91710000       0.96920000
   104  H          0.13300000       0.91710000       0.53080000
   105  O          0.08603000       0.66452000       0.15092000
   106  O          0.91397000       0.66452000       0.34908000
   107  O          0.58603000       0.16452000       0.15092000
   108  O          0.41397000       0.16452000       0.34908000
   109  O          0.91397000       0.33548000       0.84908000
   110  O          0.08603000       0.33548000       0.65092000
   111  O          0.41397000       0.83548000       0.84908000
   112  O          0.58603000       0.83548000       0.65092000
   113  H          0.16630000       0.62830000       0.16630000
   114  H          0.83370000       0.62830000       0.33370000
   115  H          0.66630000       0.12830000       0.16630000
   116  H          0.33370000       0.12830000       0.33370000
   117  H          0.83370000       0.37170000       0.83370000
   118  H          0.16630000       0.37170000       0.66630000
   119  H          0.33370000       0.87170000       0.83370000
   120  H          0.66630000       0.87170000       0.66630000
   121  C          0.84076000       0.62953000       0.08543000
   122  C          0.15924000       0.62953000       0.41457000
   123  C          0.34076000       0.12953000       0.08543000
   124  C          0.65924000       0.12953000       0.41457000
   125  C          0.15924000       0.37047000       0.91457000
   126  C          0.84076000       0.37047000       0.58543000
   127  C          0.65924000       0.87047000       0.91457000
   128  C          0.34076000       0.87047000       0.58543000
   129  H          0.82820000       0.71820000       0.07950000
   130  H          0.17180000       0.71820000       0.42050000
   131  H          0.32820000       0.21820000       0.07950000
   132  H          0.67180000       0.21820000       0.42050000
   133  H          0.17180000       0.28180000       0.92050000
   134  H          0.82820000       0.28180000       0.57950000
   135  H          0.67180000       0.78180000       0.92050000
   136  H          0.32820000       0.78180000       0.57950000
   137  C          0.50000000       0.48025000       0.25000000
   138  C         -0.00000000       0.98025000       0.25000000
   139  C          0.50000000       0.51975000       0.75000000
   140  C          0.00000000       0.01975000       0.75000000
   141  O          0.50000000       0.59593000       0.25000000
   142  O         -0.00000000       0.09593000       0.25000000
   143  O          0.50000000       0.40407000       0.75000000
   144  O         -0.00000000       0.90407000       0.75000000
