data_SAGXOP01
_symmetry_space_group_name_H-M    'P1'
_symmetry_Int_Tables_number       1
loop_
_symmetry_equiv_pos_site_id
_symmetry_equiv_pos_as_xyz
1 x,y,z
_cell_length_a                   10.580412
_cell_length_b                   15.739918
_cell_length_c                   9.011411
_cell_angle_alpha                90.0
_cell_angle_beta                 97.64911
_cell_angle_gamma                90.0
loop_
_atom_site_label
_atom_site_type_symbol
_atom_site_fract_x
_atom_site_fract_y
_atom_site_fract_z
     1  N          0.17724100       0.11073700       0.59675110
     2  N          0.82275900       0.61073700       0.90324890
     3  N          0.82275900       0.88926300       0.40324890
     4  N          0.17724100       0.38926300       0.09675110
     5  N          0.30667100       0.39250700       0.57537110
     6  N          0.69332900       0.89250700       0.92462890
     7  N          0.69332900       0.60749300       0.42462890
     8  N          0.30667100       0.10749300       0.07537110
     9  C          0.24145110       0.25250800       0.59182120
    10  C          0.75854890       0.75250800       0.90817880
    11  C          0.75854890       0.74749200       0.40817880
    12  C          0.24145110       0.24749200       0.09182120
    13  C          0.32025120       0.45893900       0.49858140
    14  C          0.67974880       0.95893900       0.00141860
    15  C          0.67974880       0.54106100       0.50141860
    16  C          0.32025120       0.04106100      -0.00141860
    17  H          0.30030000       0.45760000       0.39490000
    18  H          0.69970000       0.95760000       0.10510000
    19  H          0.69970000       0.54240000       0.60510000
    20  H          0.30030000       0.04240000       0.89490000
    21  N          0.22022110       0.17775700       0.51924110
    22  N          0.77977890       0.67775700       0.98075890
    23  N          0.77977890       0.82224300       0.48075890
    24  N          0.22022110       0.32224300       0.01924110
    25  H          0.22481300       0.17459000       0.42931400
    26  H          0.77518700       0.67459000       0.07068600
    27  H          0.77518700       0.82541000       0.57068600
    28  H          0.22481300       0.32541000       0.92931400
    29  O          0.24219900       0.25944600       0.72808900
    30  O          0.75780100       0.75944600       0.77191100
    31  O          0.75780100       0.74055400       0.27191100
    32  O          0.24219900       0.24055400       0.22808900
    33  N          0.26426110       0.31912700       0.50452110
    34  N          0.73573890       0.81912700      -0.00452110
    35  N          0.73573890       0.68087300       0.49547890
    36  N          0.26426110       0.18087300       0.00452110
    37  H          0.26361400       0.31239000       0.41281400
    38  H          0.73638600       0.81239000       0.08718600
    39  H          0.73638600       0.68761000       0.58718600
    40  H          0.26361400       0.18761000       0.91281400
    41  C          0.18332140       0.03667900       0.54169150
    42  C          0.81667860       0.53667900       0.95830850
    43  C          0.81667860       0.96332100       0.45830850
    44  C          0.18332140       0.46332100       0.04169150
    45  H          0.21810000       0.02950000       0.45300000
    46  H          0.78190000       0.52950000       0.04700000
    47  H          0.78190000       0.97050000       0.54700000
    48  H          0.21810000       0.47050000       0.95300000
    49  C          0.13661130       0.96299100       0.61563150
    50  C          0.86338870       0.46299100       0.88436850
    51  C          0.86338870       0.03700900       0.38436850
    52  C          0.13661130       0.53700900       0.11563150
    53  O          0.03514110       0.04665800       0.79028120
    54  O          0.96485890       0.54665800       0.70971880
    55  O          0.96485890       0.95334200       0.20971880
    56  O          0.03514110       0.45334200       0.29028120
    57  H          0.06661700       0.08651000       0.74420000
    58  H          0.93338300       0.58651000       0.75580000
    59  H          0.93338300       0.91349000       0.25580000
    60  H          0.06661700       0.41349000       0.24420000
    61  O          0.41830130       0.46739800       0.81301110
    62  O          0.58169870       0.96739800       0.68698890
    63  O          0.58169870       0.53260200       0.18698890
    64  O          0.41830130       0.03260200       0.31301110
    65  H          0.38641800       0.42511000       0.76520000
    66  H          0.61358200       0.92511000       0.73480000
    67  H          0.61358200       0.57489000       0.23480000
    68  H          0.38641800       0.07489000       0.26520000
    69  C          0.36697120       0.53678800       0.57321150
    70  C          0.63302880       0.03678800       0.92678850
    71  C          0.63302880       0.46321200       0.42678850
    72  C          0.36697120       0.96321200       0.07321150
    73  C          0.36674150       0.61217100       0.49295180
    74  C          0.63325850       0.11217100       0.00704820
    75  C          0.63325850       0.38782900       0.50704820
    76  C          0.36674150       0.88782900      -0.00704820
    77  H          0.33660000       0.61210000       0.39120000
    78  H          0.66340000       0.11210000       0.10880000
    79  H          0.66340000       0.38790000       0.60880000
    80  H          0.33660000       0.88790000       0.89120000
    81  C          0.06605140       0.97016100       0.73537170
    82  C          0.93394860       0.47016100       0.76462830
    83  C          0.93394860       0.02983900       0.26462830
    84  C          0.06605140       0.52983900       0.23537170
    85  C          0.41472140       0.53823100       0.72660160
    86  C          0.58527860       0.03823100       0.77339840
    87  C          0.58527860       0.46176900       0.27339840
    88  C          0.41472140       0.96176900       0.22660160
    89  C          0.16294160       0.88171900       0.56607190
    90  C          0.83705840       0.38171900       0.93392810
    91  C          0.83705840       0.11828100       0.43392810
    92  C          0.16294160       0.61828100       0.06607190
    93  H          0.20850000       0.87570000       0.48530000
    94  H          0.79150000       0.37570000       0.01470000
    95  H          0.79150000       0.12430000       0.51470000
    96  H          0.20850000       0.62430000      -0.01470000
    97  C          0.02499150       0.89747880       0.80291190
    98  C          0.97500850       0.39747880       0.69708810
    99  C          0.97500850       0.10252120       0.19708810
   100  C          0.02499150       0.60252120       0.30291190
   101  H          0.97780000       0.90240000       0.88250000
   102  H          0.02220000       0.40240000       0.61750000
   103  H          0.02220000       0.09760000       0.11750000
   104  H          0.97780000       0.59760000       0.38250000
   105  C          0.41009160       0.68683100       0.56082000
   106  C          0.58990840       0.18683100       0.93918000
   107  C          0.58990840       0.31316900       0.43918000
   108  C          0.41009160       0.81316900       0.06082000
   109  H          0.40740000       0.73700000       0.50600000
   110  H          0.59260000       0.23700000      -0.00600000
   111  H          0.59260000       0.26300000       0.49400000
   112  H          0.40740000       0.76300000       0.00600000
   113  C          0.46054160       0.61336120       0.79322000
   114  C          0.53945840       0.11336120       0.70678000
   115  C          0.53945840       0.38663880       0.20678000
   116  C          0.46054160       0.88663880       0.29322000
   117  H          0.49330000       0.61390000       0.89420000
   118  H          0.50670000       0.11390000       0.60580000
   119  H          0.50670000       0.38610000       0.10580000
   120  H          0.49330000       0.88610000       0.39420000
   121  C          0.45799170       0.68654120       0.71202000
   122  C          0.54200830       0.18654120       0.78798000
   123  C          0.54200830       0.31345880       0.28798000
   124  C          0.45799170       0.81345880       0.21202000
   125  H          0.48860000       0.73670000       0.75810000
   126  H          0.51140000       0.23670000       0.74190000
   127  H          0.51140000       0.26330000       0.24190000
   128  H          0.48860000       0.76330000       0.25810000
   129  C          0.05410170       0.81855880       0.75212000
   130  C          0.94589830       0.31855880       0.74788000
   131  C          0.94589830       0.18144120       0.24788000
   132  C          0.05410170       0.68144120       0.25212000
   133  H          0.02680000       0.77030000       0.79810000
   134  H          0.97320000       0.27030000       0.70190000
   135  H          0.97320000       0.22970000       0.20190000
   136  H          0.02680000       0.72970000       0.29810000
   137  C          0.12268170       0.81011890       0.63462000
   138  C          0.87731830       0.31011890       0.86538000
   139  C          0.87731830       0.18988110       0.36538000
   140  C          0.12268170       0.68988110       0.13462000
   141  H          0.14210000       0.75640000       0.60100000
   142  H          0.85790000       0.25640000       0.89900000
   143  H          0.85790000       0.24360000       0.39900000
   144  H          0.14210000       0.74360000       0.10100000
