data_SAGXOP
_symmetry_space_group_name_H-M    'P1'
_symmetry_Int_Tables_number       1
loop_
_symmetry_equiv_pos_site_id
_symmetry_equiv_pos_as_xyz
1 x,y,z
_cell_length_a                   14.31014
_cell_length_b                   9.36202
_cell_length_c                   10.26972
_cell_angle_alpha                90.0
_cell_angle_beta                 90.0
_cell_angle_gamma                90.0
loop_
_atom_site_label
_atom_site_type_symbol
_atom_site_fract_x
_atom_site_fract_y
_atom_site_fract_z
     1  O          0.50000000       0.50000000       0.50067160
     2  O          0.00000000       0.00000000       0.50067160
     3  O          0.50000000       0.00000000       0.00067160
     4  O          0.00000000       0.50000000       0.00067160
     5  O          0.59665800       0.87891120       0.43307120
     6  O          0.40334200       0.12108880       0.43307120
     7  O          0.09665800       0.62108880       0.43307120
     8  O          0.90334200       0.37891120       0.43307120
     9  O          0.59665800       0.37891120       0.93307120
    10  O          0.40334200       0.62108880       0.93307120
    11  O          0.09665800       0.12108880       0.93307120
    12  O          0.90334200       0.87891120       0.93307120
    13  N          0.52439900       0.61383130       0.69670150
    14  N          0.47560100       0.38616870       0.69670150
    15  N          0.02439900       0.88616870       0.69670150
    16  N          0.97560100       0.11383130       0.69670150
    17  N          0.52439900       0.11383130       0.19670150
    18  N          0.47560100       0.88616870       0.19670150
    19  N          0.02439900       0.38616870       0.19670150
    20  N          0.97560100       0.61383130       0.19670150
    21  N          0.55917900       0.73346130       0.63891130
    22  N          0.44082100       0.26653870       0.63891130
    23  N          0.05917900       0.76653870       0.63891130
    24  N          0.94082100       0.23346130       0.63891130
    25  N          0.55917900       0.23346130       0.13891130
    26  N          0.44082100       0.76653870       0.13891130
    27  N          0.05917900       0.26653870       0.13891130
    28  N          0.94082100       0.73346130       0.13891130
    29  C          0.50000000       0.50000000       0.61912000
    30  C          0.00000000       0.00000000       0.61912000
    31  C          0.50000000       0.00000000       0.11912000
    32  C          0.00000000       0.50000000       0.11912000
    33  C          0.57681110       0.84255160       0.71089150
    34  C          0.42318890       0.15744840       0.71089150
    35  C          0.07681110       0.65744840       0.71089150
    36  C          0.92318890       0.34255160       0.71089150
    37  C          0.57681110       0.34255160       0.21089150
    38  C          0.42318890       0.65744840       0.21089150
    39  C          0.07681110       0.15744840       0.21089150
    40  C          0.92318890       0.84255160       0.21089150
    41  H          0.56460000       0.83950000       0.80180000
    42  H          0.43540000       0.16050000       0.80180000
    43  H          0.06460000       0.66050000       0.80180000
    44  H          0.93540000       0.33950000       0.80180000
    45  H          0.56460000       0.33950000       0.30180000
    46  H          0.43540000       0.66050000       0.30180000
    47  H          0.06460000       0.16050000       0.30180000
    48  H          0.93540000       0.83950000       0.30180000
    49  C          0.61574100       0.97076150       0.65176150
    50  C          0.38425900       0.02923850       0.65176150
    51  C          0.11574100       0.52923850       0.65176150
    52  C          0.88425900       0.47076150       0.65176150
    53  C          0.61574100       0.47076150       0.15176150
    54  C          0.38425900       0.52923850       0.15176150
    55  C          0.11574100       0.02923850       0.15176150
    56  C          0.88425900       0.97076150       0.15176150
    57  C          0.64432110       0.08454170       0.73122160
    58  C          0.35567890       0.91545830       0.73122160
    59  C          0.14432110       0.41545830       0.73122160
    60  C          0.85567890       0.58454170       0.73122160
    61  C          0.64432110       0.58454170       0.23122160
    62  C          0.35567890       0.41545830       0.23122160
    63  C          0.14432110       0.91545830       0.23122160
    64  C          0.85567890       0.08454170       0.23122160
    65  H          0.63800000       0.07690000       0.82300000
    66  H          0.36200000       0.92310000       0.82300000
    67  H          0.13800000       0.42310000       0.82300000
    68  H          0.86200000       0.57690000       0.82300000
    69  H          0.63800000       0.57690000       0.32300000
    70  H          0.36200000       0.42310000       0.32300000
    71  H          0.13800000       0.92310000       0.32300000
    72  H          0.86200000       0.07690000       0.32300000
    73  C          0.68171110       0.20828180       0.67764180
    74  C          0.31828890       0.79171820       0.67764180
    75  C          0.18171110       0.29171820       0.67764180
    76  C          0.81828890       0.70828180       0.67764180
    77  C          0.68171110       0.70828180       0.17764180
    78  C          0.31828890       0.29171820       0.17764180
    79  C          0.18171110       0.79171820       0.17764180
    80  C          0.81828890       0.20828180       0.17764180
    81  H          0.70090000       0.28470000       0.73240000
    82  H          0.29910000       0.71530000       0.73240000
    83  H          0.20090000       0.21530000       0.73240000
    84  H          0.79910000       0.78470000       0.73240000
    85  H          0.70090000       0.78470000       0.23240000
    86  H          0.29910000       0.21530000       0.23240000
    87  H          0.20090000       0.71530000       0.23240000
    88  H          0.79910000       0.28470000       0.23240000
    89  C          0.69086110       0.21928180       0.54321190
    90  C          0.30913890       0.78071820       0.54321190
    91  C          0.19086110       0.28071820       0.54321190
    92  C          0.80913890       0.71928180       0.54321190
    93  C          0.69086110       0.71928180       0.04321190
    94  C          0.30913890       0.28071820       0.04321190
    95  C          0.19086110       0.78071820       0.04321190
    96  C          0.80913890       0.21928180       0.04321190
    97  H          0.71650000       0.30360000       0.50620000
    98  H          0.28350000       0.69640000       0.50620000
    99  H          0.21650000       0.19640000       0.50620000
   100  H          0.78350000       0.80360000       0.50620000
   101  H          0.71650000       0.80360000       0.00620000
   102  H          0.28350000       0.19640000       0.00620000
   103  H          0.21650000       0.69640000       0.00620000
   104  H          0.78350000       0.30360000       0.00620000
   105  C          0.66290110       0.10842160       0.46270150
   106  C          0.33709890       0.89157840       0.46270150
   107  C          0.16290110       0.39157840       0.46270150
   108  C          0.83709890       0.60842160       0.46270150
   109  C          0.66290110       0.60842160       0.96270150
   110  C          0.33709890       0.39157840       0.96270150
   111  C          0.16290110       0.89157840       0.96270150
   112  C          0.83709890       0.10842160       0.96270150
   113  H          0.66980000       0.11690000       0.37100000
   114  H          0.33020000       0.88310000       0.37100000
   115  H          0.16980000       0.38310000       0.37100000
   116  H          0.83020000       0.61690000       0.37100000
   117  H          0.66980000       0.61690000       0.87100000
   118  H          0.33020000       0.38310000       0.87100000
   119  H          0.16980000       0.88310000       0.87100000
   120  H          0.83020000       0.11690000       0.87100000
   121  C          0.62482900       0.98474160       0.51579140
   122  C          0.37517100       0.01525840       0.51579140
   123  C          0.12482900       0.51525840       0.51579140
   124  C          0.87517100       0.48474160       0.51579140
   125  C          0.62482900       0.48474160       0.01579140
   126  C          0.37517100       0.51525840       0.01579140
   127  C          0.12482900       0.01525840       0.01579140
   128  C          0.87517100       0.98474160       0.01579140
   129  H          0.50061700       0.61420000       0.77730000
   130  H          0.49938300       0.38580000       0.77730000
   131  H          0.00061700       0.88580000       0.77730000
   132  H         -0.00061700       0.11420000       0.77730000
   133  H          0.50061700       0.11420000       0.27730000
   134  H          0.49938300       0.88580000       0.27730000
   135  H          0.00061700       0.38580000       0.27730000
   136  H         -0.00061700       0.61420000       0.27730000
   137  H          0.57920000       0.80930000       0.48130000
   138  H          0.42080000       0.19070000       0.48130000
   139  H          0.07920000       0.69070000       0.48130000
   140  H          0.92080000       0.30930000       0.48130000
   141  H          0.57920000       0.30930000       0.98130000
   142  H          0.42080000       0.69070000       0.98130000
   143  H          0.07920000       0.19070000       0.98130000
   144  H          0.92080000       0.80930000       0.98130000
