data_SALMID06
_symmetry_space_group_name_H-M    'P1'
_symmetry_Int_Tables_number       1
loop_
_symmetry_equiv_pos_site_id
_symmetry_equiv_pos_as_xyz
1 x,y,z
_cell_length_a                   12.27917
_cell_length_b                   4.76433
_cell_length_c                   17.964917
_cell_angle_alpha                90.0
_cell_angle_beta                 93.9604
_cell_angle_gamma                90.0
loop_
_atom_site_label
_atom_site_type_symbol
_atom_site_fract_x
_atom_site_fract_y
_atom_site_fract_z
     1  N          0.55924130       0.72663000       0.55302000
     2  N          0.05924130       0.22663000       0.05302000
     3  N          0.94075870       0.72663000       0.44698000
     4  N          0.44075870       0.22663000       0.94698000
     5  N          0.44075870       0.27337000       0.44698000
     6  N          0.94075870       0.77337000       0.94698000
     7  N          0.05924130       0.27337000       0.55302000
     8  N          0.55924130       0.77337000       0.05302000
     9  O          0.38107110       0.82493000       0.53225180
    10  O          0.88107110       0.32493000       0.03225180
    11  O          0.11892890       0.82493000       0.46774820
    12  O          0.61892890       0.32493000       0.96774820
    13  O          0.61892890       0.17507000       0.46774820
    14  O          0.11892890       0.67507000       0.96774820
    15  O          0.88107110       0.17507000       0.53225180
    16  O          0.38107110       0.67507000       0.03225180
    17  O          0.23967100       0.58073000       0.59881180
    18  O          0.73967100       0.08073000       0.09881180
    19  O          0.26032900       0.58073000       0.40118820
    20  O          0.76032900       0.08073000       0.90118820
    21  O          0.76032900       0.41927000       0.40118820
    22  O          0.26032900       0.91927000       0.90118820
    23  O          0.73967100       0.41927000       0.59881180
    24  O          0.23967100       0.91927000       0.09881180
    25  C          0.31755140       0.40214000       0.62682000
    26  C          0.81755140       0.90214000       0.12682000
    27  C          0.18244860       0.40214000       0.37318000
    28  C          0.68244860       0.90214000       0.87318000
    29  C          0.68244860       0.59786000       0.37318000
    30  C          0.18244860       0.09786000       0.87318000
    31  C          0.81755140       0.59786000       0.62682000
    32  C          0.31755140       0.09786000       0.12682000
    33  C          0.42767130       0.44174000       0.61212000
    34  C          0.92767130       0.94174000       0.11212000
    35  C          0.07232870       0.44174000       0.38788000
    36  C          0.57232870       0.94174000       0.88788000
    37  C          0.57232870       0.55826000       0.38788000
    38  C          0.07232870       0.05826000       0.88788000
    39  C          0.92767130       0.55826000       0.61212000
    40  C          0.42767130       0.05826000       0.11212000
    41  C          0.50459140       0.25704000       0.64483000
    42  C          0.00459140       0.75704000       0.14483000
    43  C         -0.00459140       0.25704000       0.35517000
    44  C          0.49540860       0.75704000       0.85517000
    45  C          0.49540860       0.74296000       0.35517000
    46  C         -0.00459140       0.24296000       0.85517000
    47  C          0.00459140       0.74296000       0.64483000
    48  C          0.50459140       0.24296000       0.14483000
    49  C          0.47481150       0.04264000       0.69062000
    50  C          0.97481150       0.54264000       0.19062000
    51  C          0.02518850       0.04264000       0.30938000
    52  C          0.52518850       0.54264000       0.80938000
    53  C          0.52518850       0.95736000       0.30938000
    54  C          0.02518850       0.45736000       0.80938000
    55  C          0.97481150       0.95736000       0.69062000
    56  C          0.47481150       0.45736000       0.19062000
    57  C          0.36511160       0.00434000       0.70362000
    58  C          0.86511160       0.50434000       0.20362000
    59  C          0.13488840       0.00434000       0.29638000
    60  C          0.63488840       0.50434000       0.79638000
    61  C          0.63488840      -0.00434000       0.29638000
    62  C          0.13488840       0.49566000       0.79638000
    63  C          0.86511160      -0.00434000       0.70362000
    64  C          0.36511160       0.49566000       0.20362000
    65  C          0.28706150       0.18174000       0.67113000
    66  C          0.78706150       0.68174000       0.17113000
    67  C          0.21293850       0.18174000       0.32887000
    68  C          0.71293850       0.68174000       0.82887000
    69  C          0.71293850       0.81826000       0.32887000
    70  C          0.21293850       0.31826000       0.82887000
    71  C          0.78706150       0.81826000       0.67113000
    72  C          0.28706150       0.31826000       0.17113000
    73  C          0.45560140       0.67514000       0.56302000
    74  C          0.95560140       0.17514000       0.06302000
    75  C          0.04439860       0.67514000       0.43698000
    76  C          0.54439860       0.17514000       0.93698000
    77  C          0.54439860       0.32486000       0.43698000
    78  C          0.04439860       0.82486000       0.93698000
    79  C          0.95560140       0.32486000       0.56302000
    80  C          0.45560140       0.82486000       0.06302000
    81  H          0.57930000       0.27930000       0.63540000
    82  H          0.07930000       0.77930000       0.13540000
    83  H          0.92070000       0.27930000       0.36460000
    84  H          0.42070000       0.77930000       0.86460000
    85  H          0.42070000       0.72070000       0.36460000
    86  H          0.92070000       0.22070000       0.86460000
    87  H          0.07930000       0.72070000       0.63540000
    88  H          0.57930000       0.22070000       0.13540000
    89  H          0.52880000       0.92120000       0.71320000
    90  H          0.02880000       0.42120000       0.21320000
    91  H          0.97120000       0.92120000       0.28680000
    92  H          0.47120000       0.42120000       0.78680000
    93  H          0.47120000       0.07880000       0.28680000
    94  H          0.97120000       0.57880000       0.78680000
    95  H          0.02880000       0.07880000       0.71320000
    96  H          0.52880000       0.57880000       0.21320000
    97  H          0.34420000       0.85560000       0.73480000
    98  H          0.84420000       0.35560000       0.23480000
    99  H          0.15580000       0.85560000       0.26520000
   100  H          0.65580000       0.35560000       0.76520000
   101  H          0.65580000       0.14440000       0.26520000
   102  H          0.15580000       0.64440000       0.76520000
   103  H          0.84420000       0.14440000       0.73480000
   104  H          0.34420000       0.64440000       0.23480000
   105  H          0.21220000       0.15290000       0.67910000
   106  H          0.71220000       0.65290000       0.17910000
   107  H          0.28780000       0.15290000       0.32090000
   108  H          0.78780000       0.65290000       0.82090000
   109  H          0.78780000       0.84710000       0.32090000
   110  H          0.28780000       0.34710000       0.82090000
   111  H          0.71220000       0.84710000       0.67910000
   112  H          0.21220000       0.34710000       0.17910000
   113  H          0.57700000       0.86740000       0.52450000
   114  H          0.07700000       0.36740000       0.02450000
   115  H          0.92300000       0.86740000       0.47550000
   116  H          0.42300000       0.36740000       0.97550000
   117  H          0.42300000       0.13260000       0.47550000
   118  H          0.92300000       0.63260000       0.97550000
   119  H          0.07700000       0.13260000       0.52450000
   120  H          0.57700000       0.63260000       0.02450000
   121  H          0.61060000       0.62020000       0.57490000
   122  H          0.11060000       0.12020000       0.07490000
   123  H          0.88940000       0.62020000       0.42510000
   124  H          0.38940000       0.12020000       0.92510000
   125  H          0.38940000       0.37980000       0.42510000
   126  H          0.88940000       0.87980000       0.92510000
   127  H          0.11060000       0.37980000       0.57490000
   128  H          0.61060000       0.87980000       0.07490000
   129  H          0.27130000       0.69440000       0.57118000
   130  H          0.77130000       0.19440000       0.07118000
   131  H          0.22870000       0.69440000       0.42882000
   132  H          0.72870000       0.19440000       0.92882000
   133  H          0.72870000       0.30560000       0.42882000
   134  H          0.22870000       0.80560000       0.92882000
   135  H          0.77130000       0.30560000       0.57118000
   136  H          0.27130000       0.80560000       0.07118000
