data_SALMID01
_symmetry_space_group_name_H-M    'P1'
_symmetry_Int_Tables_number       1
loop_
_symmetry_equiv_pos_site_id
_symmetry_equiv_pos_as_xyz
1 x,y,z
_cell_length_a                   12.9012
_cell_length_b                   4.9821
_cell_length_c                   20.9873
_cell_angle_alpha                90.0
_cell_angle_beta                 91.502
_cell_angle_gamma                90.0
loop_
_atom_site_label
_atom_site_type_symbol
_atom_site_fract_x
_atom_site_fract_y
_atom_site_fract_z
     1  C          0.07931000       0.18272000       0.37161000
     2  C          0.92069000       0.18272000       0.12839000
     3  C          0.57931000       0.68272000       0.87161000
     4  C          0.42069000       0.68272000       0.62839000
     5  C          0.92069000       0.81728000       0.62839000
     6  C          0.07931000       0.81728000       0.87161000
     7  C          0.42069000       0.31728000       0.12839000
     8  C          0.57931000       0.31728000       0.37161000
     9  C          0.18461000       0.22822000       0.36001000
    10  C          0.81539000       0.22822000       0.13999000
    11  C          0.68461000       0.72822000       0.86001000
    12  C          0.31539000       0.72822000       0.63999000
    13  C          0.81539000       0.77178000       0.63999000
    14  C          0.18461000       0.77178000       0.86001000
    15  C          0.31539000       0.27178000       0.13999000
    16  C          0.68461000       0.27178000       0.36001000
    17  C          0.25821000       0.07192000       0.39281000
    18  C          0.74179000       0.07192000       0.10719000
    19  C          0.75821000       0.57192000       0.89281000
    20  C          0.24179000       0.57192000       0.60719000
    21  C          0.74179000       0.92808000       0.60719000
    22  C          0.25821000       0.92808000       0.89281000
    23  C          0.24179000       0.42808000       0.10719000
    24  C          0.75821000       0.42808000       0.39281000
    25  C          0.22941000       0.87847000       0.43591000
    26  C          0.77059000       0.87847000       0.06409000
    27  C          0.72941000       0.37847000       0.93591000
    28  C          0.27059000       0.37847000       0.56409000
    29  C          0.77059000       0.12153000       0.56409000
    30  C          0.22941000       0.12153000       0.93591000
    31  C          0.27059000       0.62153000       0.06409000
    32  C          0.72941000       0.62153000       0.43591000
    33  C          0.12561000       0.83587000       0.44671000
    34  C          0.87439000       0.83587000       0.05329000
    35  C          0.62561000       0.33587000       0.94671000
    36  C          0.37439000       0.33587000       0.55329000
    37  C          0.87439000       0.16413000       0.55329000
    38  C          0.12561000       0.16413000       0.94671000
    39  C          0.37439000       0.66413000       0.05329000
    40  C          0.62561000       0.66413000       0.44671000
    41  C          0.05081000      -0.01413000       0.41511000
    42  C          0.94919000      -0.01413000       0.08489000
    43  C          0.55081000       0.48587000       0.91511000
    44  C          0.44919000       0.48587000       0.58489000
    45  C          0.94919000       0.01413000       0.58489000
    46  C          0.05081000       0.01413000       0.91511000
    47  C          0.44919000       0.51413000       0.08489000
    48  C          0.55081000       0.51413000       0.41511000
    49  C          0.21261000       0.43992000       0.31371000
    50  C          0.78739000       0.43992000       0.18629000
    51  C          0.71261000       0.93992000       0.81371000
    52  C          0.28739000       0.93992000       0.68629000
    53  C          0.78739000       0.56008000       0.68629000
    54  C          0.21261000       0.56008000       0.81371000
    55  C          0.28739000       0.06008000       0.18629000
    56  C          0.71261000       0.06008000       0.31371000
    57  N          0.31191000       0.48112000       0.30071000
    58  N          0.68809000       0.48112000       0.19929000
    59  N          0.81191000      -0.01888000       0.80071000
    60  N          0.18809000      -0.01888000       0.69929000
    61  N          0.68809000       0.51888000       0.69929000
    62  N          0.31191000       0.51888000       0.80071000
    63  N          0.18809000       0.01888000       0.19929000
    64  N          0.81191000       0.01888000       0.30071000
    65  O          0.14321000       0.58022000       0.28711000
    66  O          0.85679000       0.58022000       0.21289000
    67  O          0.64321000       0.08022000       0.78711000
    68  O          0.35679000       0.08022000       0.71289000
    69  O          0.85679000       0.41978000       0.71289000
    70  O          0.14321000       0.41978000       0.78711000
    71  O          0.35679000       0.91978000       0.21289000
    72  O          0.64321000       0.91978000       0.28711000
    73  O          0.00301000       0.32502000       0.34181000
    74  O         -0.00301000       0.32502000       0.15819000
    75  O          0.50301000       0.82502000       0.84181000
    76  O          0.49699000       0.82502000       0.65819000
    77  O         -0.00301000       0.67498000       0.65819000
    78  O          0.00301000       0.67498000       0.84181000
    79  O          0.49699000       0.17498000       0.15819000
    80  O          0.50301000       0.17498000       0.34181000
    81  H          0.33251100       0.10052800       0.38617000
    82  H          0.66748900       0.10052800       0.11383000
    83  H          0.83251100       0.60052800       0.88617000
    84  H          0.16748900       0.60052800       0.61383000
    85  H          0.66748900       0.89947200       0.61383000
    86  H          0.33251100       0.89947200       0.88617000
    87  H          0.16748900       0.39947200       0.11383000
    88  H          0.83251100       0.39947200       0.38617000
    89  H          0.27921200       0.76386900       0.45657000
    90  H          0.72078800       0.76386900       0.04343000
    91  H          0.77921200       0.26386900       0.95657000
    92  H          0.22078800       0.26386900       0.54343000
    93  H          0.72078800       0.23613100       0.54343000
    94  H          0.27921200       0.23613100       0.95657000
    95  H          0.22078800       0.73613100       0.04343000
    96  H          0.77921200       0.73613100       0.45657000
    97  H          0.10411300       0.69657000       0.47477000
    98  H          0.89588700       0.69657000       0.02523000
    99  H          0.60411300       0.19657000       0.97477000
   100  H          0.39588700       0.19657000       0.52523000
   101  H          0.89588700       0.30343000       0.52523000
   102  H          0.10411300       0.30343000       0.97477000
   103  H          0.39588700       0.80343000       0.02523000
   104  H          0.60411300       0.80343000       0.47477000
   105  H          0.97458600       0.95536900       0.42107000
   106  H          0.02541400       0.95536900       0.07893000
   107  H          0.47458600       0.45536900       0.92107000
   108  H          0.52541400       0.45536900       0.57893000
   109  H          0.02541400       0.04463100       0.57893000
   110  H          0.97458600       0.04463100       0.92107000
   111  H          0.52541400       0.54463100       0.07893000
   112  H          0.47458600       0.54463100       0.42107000
   113  H          0.32591200       0.62072900       0.27337000
   114  H          0.67408800       0.62072900       0.22663000
   115  H          0.82591200       0.12072900       0.77337000
   116  H          0.17408800       0.12072900       0.72663000
   117  H          0.67408800       0.37927100       0.72663000
   118  H          0.32591200       0.37927100       0.77337000
   119  H          0.17408800       0.87927100       0.22663000
   120  H          0.82591200       0.87927100       0.27337000
   121  H          0.36341100       0.37182700       0.31597000
   122  H          0.63658900       0.37182700       0.18403000
   123  H          0.86341100       0.87182700       0.81597000
   124  H          0.13658900       0.87182700       0.68403000
   125  H          0.63658900       0.62817300       0.68403000
   126  H          0.36341100       0.62817300       0.81597000
   127  H          0.13658900       0.12817300       0.18403000
   128  H          0.86341100       0.12817300       0.31597000
   129  H          0.03491500       0.45783400       0.31748000
   130  H          0.96508500       0.45783400       0.18252000
   131  H          0.53491500       0.95783400       0.81748000
   132  H          0.46508500       0.95783400       0.68252000
   133  H          0.96508500       0.54216600       0.68252000
   134  H          0.03491500       0.54216600       0.81748000
   135  H          0.46508500       0.04216600       0.18252000
   136  H          0.53491500       0.04216600       0.31748000
