data_SALMID07
_symmetry_space_group_name_H-M    'P1'
_symmetry_Int_Tables_number       1
loop_
_symmetry_equiv_pos_site_id
_symmetry_equiv_pos_as_xyz
1 x,y,z
_cell_length_a                   3.89384
_cell_length_b                   5.56126
_cell_length_c                   28.5668
_cell_angle_alpha                90.0
_cell_angle_beta                 90.0
_cell_angle_gamma                90.0
loop_
_atom_site_label
_atom_site_type_symbol
_atom_site_fract_x
_atom_site_fract_y
_atom_site_fract_z
     1  N          0.46029000       0.27295000       0.30161140
     2  N          0.96029000       0.22705000       0.69838860
     3  N          0.53971000       0.77295000       0.19838860
     4  N          0.03971000       0.72705000       0.80161140
     5  O          0.19437000       0.61775000       0.28282120
     6  O          0.69437000       0.88225000       0.71717880
     7  O          0.80563000       0.11775000       0.21717880
     8  O          0.30563000       0.38225000       0.78282120
     9  O          0.88763000       0.87175000       0.34323130
    10  O          0.38763000       0.62825000       0.65676870
    11  O          0.11237000       0.37175000       0.15676870
    12  O          0.61237000       0.12825000       0.84323130
    13  C         -0.01459000       0.70516000       0.37539180
    14  C          0.48541000       0.79484000       0.62460820
    15  C          0.01459000       0.20516000       0.12460820
    16  C          0.51459000       0.29484000       0.87539180
    17  C          0.17008000       0.49796000       0.36249170
    18  C          0.67008000       0.00204000       0.63750830
    19  C          0.82992000      -0.00204000       0.13750830
    20  C          0.32992000       0.50204000       0.86249170
    21  C          0.25009000       0.33396000       0.39776180
    22  C          0.75009000       0.16604000       0.60223820
    23  C          0.74991000       0.83396000       0.10223820
    24  C          0.24991000       0.66604000       0.89776180
    25  C          0.15571000       0.37267000       0.44348190
    26  C          0.65571000       0.12733000       0.55651810
    27  C          0.84429000       0.87267000       0.05651810
    28  C          0.34429000       0.62733000       0.94348190
    29  C         -0.01851100       0.58117000       0.45530180
    30  C          0.48148900       0.91883000       0.54469820
    31  C          0.01851100       0.08117000       0.04469820
    32  C          0.51851100       0.41883000       0.95530180
    33  C          0.89771000       0.74597000       0.42178180
    34  C          0.39771000       0.75403000       0.57821820
    35  C          0.10229000       0.24597000       0.07821820
    36  C          0.60229000       0.25403000       0.92178180
    37  C          0.27478000       0.46526000       0.31358180
    38  C          0.77478000       0.03474000       0.68641820
    39  C          0.72522000       0.96526000       0.18641820
    40  C          0.22522000       0.53474000       0.81358180
    41  H          0.37420000       0.19190000       0.39010000
    42  H          0.87420000       0.30810000       0.60990000
    43  H          0.62580000       0.69190000       0.10990000
    44  H          0.12580000       0.80810000       0.89010000
    45  H          0.21060000       0.25760000       0.46690000
    46  H          0.71060000       0.24240000       0.53310000
    47  H          0.78940000       0.75760000       0.03310000
    48  H          0.28940000       0.74240000       0.96690000
    49  H          0.91960000       0.60920000       0.48690000
    50  H          0.41960000       0.89080000       0.51310000
    51  H          0.08040000       0.10920000       0.01310000
    52  H          0.58040000       0.39080000       0.98690000
    53  H          0.77750000       0.88750000       0.43030000
    54  H          0.27750000       0.61250000       0.56970000
    55  H          0.22250000       0.38750000       0.06970000
    56  H          0.72250000       0.11250000       0.93030000
    57  H          0.52340000       0.25310000       0.27240000
    58  H          0.02340000       0.24690000       0.72760000
    59  H          0.47660000       0.75310000       0.22760000
    60  H         -0.02340000       0.74690000       0.77240000
    61  H          0.51610000       0.16610000       0.32300000
    62  H          0.01610000       0.33390000       0.67700000
    63  H          0.48390000       0.66610000       0.17700000
    64  H         -0.01610000       0.83390000       0.82300000
    65  H         -0.03150000       0.82270000       0.31759000
    66  H          0.46850000       0.67730000       0.68241000
    67  H          0.03150000       0.32270000       0.18241000
    68  H          0.53150000       0.17730000       0.81759000
