data_SALMID08
_symmetry_space_group_name_H-M    'P1'
_symmetry_Int_Tables_number       1
loop_
_symmetry_equiv_pos_site_id
_symmetry_equiv_pos_as_xyz
1 x,y,z
_cell_length_a                   6.5432
_cell_length_b                   15.5696
_cell_length_c                   7.1043
_cell_angle_alpha                90.0
_cell_angle_beta                 113.6469
_cell_angle_gamma                90.0
loop_
_atom_site_label
_atom_site_type_symbol
_atom_site_fract_x
_atom_site_fract_y
_atom_site_fract_z
     1  O          0.12662000       0.55173100       0.36122000
     2  O          0.87338000       0.05173100       0.13878000
     3  O          0.87338000       0.44826900       0.63878000
     4  O          0.12662000       0.94826900       0.86122000
     5  C          0.89123000       0.60423110       0.03353000
     6  C          0.10877000       0.10423110       0.46647000
     7  C          0.10877000       0.39576890       0.96647000
     8  C          0.89123000       0.89576890       0.53353000
     9  O          0.28472000       0.62416110       0.12702000
    10  O          0.71528000       0.12416110       0.37298000
    11  O          0.71528000       0.37583890       0.87298000
    12  O          0.28472000       0.87583890       0.62702000
    13  H          0.28780000       0.60000000       0.23070000
    14  H          0.71220000       0.10000000       0.26930000
    15  H          0.71220000       0.40000000       0.76930000
    16  H          0.28780000       0.90000000       0.73070000
    17  N          0.76413000       0.53919120       0.27152000
    18  N          0.23587000       0.03919120       0.22848000
    19  N          0.23587000       0.46080880       0.72848000
    20  N          0.76413000       0.96080880       0.77152000
    21  H          0.78660000       0.51490000       0.38700000
    22  H          0.21340000       0.01490000       0.11300000
    23  H          0.21340000       0.48510000       0.61300000
    24  H          0.78660000       0.98510000       0.88700000
    25  H          0.63010000       0.54730000       0.18250000
    26  H          0.36990000       0.04730000       0.31750000
    27  H          0.36990000       0.45270000       0.81750000
    28  H          0.63010000       0.95270000       0.68250000
    29  C          0.07023000       0.63312120      -0.00887000
    30  C          0.92977000       0.13312120       0.50887000
    31  C          0.92977000       0.36687880       0.00887000
    32  C          0.07023000       0.86687880       0.49113000
    33  C          0.93273000       0.56365120       0.23163000
    34  C          0.06727000       0.06365120       0.26837000
    35  C          0.06727000       0.43634880       0.76837000
    36  C          0.93273000       0.93634880       0.73163000
    37  C          0.67593000       0.61574140       0.88383000
    38  C          0.32407000       0.11574140       0.61617000
    39  C          0.32407000       0.38425860       0.11617000
    40  C          0.67593000       0.88425860       0.38383000
    41  H          0.55460000       0.59670000       0.90920000
    42  H          0.44540000       0.09670000       0.59080000
    43  H          0.44540000       0.40330000       0.09080000
    44  H          0.55460000       0.90330000       0.40920000
    45  C          0.81835000       0.68276140       0.66203000
    46  C          0.18165000       0.18276140       0.83797000
    47  C          0.18165000       0.31723860       0.33797000
    48  C          0.81835000       0.81723860       0.16203000
    49  H          0.79380000       0.70890000       0.53700000
    50  H          0.20620000       0.20890000       0.96300000
    51  H          0.20620000       0.29110000       0.46300000
    52  H          0.79380000       0.79110000       0.03700000
    53  C          0.03124000       0.67276140       0.80523000
    54  C          0.96876000       0.17276140       0.69477000
    55  C          0.96876000       0.32723860       0.19477000
    56  C          0.03124000       0.82723860       0.30523000
    57  H          0.15060000       0.69260000       0.77780000
    58  H          0.84940000       0.19260000       0.72220000
    59  H          0.84940000       0.30740000       0.22220000
    60  H          0.15060000       0.80740000       0.27780000
    61  C          0.63994000       0.65459160       0.70054000
    62  C          0.36006000       0.15459160       0.79946000
    63  C          0.36006000       0.34540840       0.29946000
    64  C          0.63994000       0.84540840       0.20054000
    65  H          0.49530000       0.66190000       0.60240000
    66  H          0.50470000       0.16190000       0.89760000
    67  H          0.50470000       0.33810000       0.39760000
    68  H          0.49530000       0.83810000       0.10240000
