data_SALOXM09
_symmetry_space_group_name_H-M    'P1'
_symmetry_Int_Tables_number       1
loop_
_symmetry_equiv_pos_site_id
_symmetry_equiv_pos_as_xyz
1 x,y,z
_cell_length_a                   7.6773
_cell_length_b                   5.77318
_cell_length_c                   12.1593
_cell_angle_alpha                90.0
_cell_angle_beta                 110.622
_cell_angle_gamma                90.0
loop_
_atom_site_label
_atom_site_type_symbol
_atom_site_fract_x
_atom_site_fract_y
_atom_site_fract_z
     1  O          0.68930000      -0.01948700       0.60457000
     2  O          0.81070000       0.48051300       0.89543000
     3  O          0.31070000       0.01948700       0.39543000
     4  O          0.18930000       0.51948700       0.10457000
     5  N          0.62730000       0.81831500       0.51589000
     6  N          0.87270000       0.31831500       0.98411000
     7  N          0.37270000       0.18168500       0.48411000
     8  N          0.12730000       0.68168500       0.01589000
     9  C          0.73440000       0.64471800       0.52841100
    10  C          0.76560000       0.14471800       0.97158900
    11  C          0.26560000       0.35528200       0.47158900
    12  C          0.23440000       0.85528200       0.02841100
    13  C          0.70540000       0.46551800       0.44081000
    14  C          0.79460000       0.96551800       0.05919000
    15  C          0.29460000       0.53448200       0.55919000
    16  C          0.20540000       0.03448200       0.94081000
    17  C          0.54340000       0.44531800       0.33891100
    18  C          0.95660000       0.94531800       0.16108900
    19  C          0.45660000       0.55468200       0.66108900
    20  C          0.04340000       0.05468200       0.83891100
    21  C          0.53030000       0.25281800       0.27151100
    22  C          0.96970000       0.75281800       0.22848900
    23  C          0.46970000       0.74718200       0.72848900
    24  C          0.03030000       0.24718200       0.77151100
    25  C          0.65930000       0.09001800       0.29001100
    26  C          0.84070000       0.59001800       0.20998900
    27  C          0.34070000       0.90998200       0.70998900
    28  C          0.15930000       0.40998200       0.79001100
    29  C          0.83330000       0.11321800       0.38511100
    30  C          0.66670000       0.61321800       0.11488900
    31  C          0.16670000       0.88678200       0.61488900
    32  C          0.33330000       0.38678200       0.88511100
    33  C          0.84030000       0.29641700       0.46031000
    34  C          0.65970000       0.79641700       0.03969000
    35  C          0.15970000       0.70358300       0.53969000
    36  C          0.34030000       0.20358300       0.96031000
    37  O          0.41830000       0.61311200       0.31297000
    38  O          0.08170000       0.11311200       0.18703000
    39  O          0.58170000       0.38688800       0.68703000
    40  O          0.91830000       0.88688800       0.81297000
    41  H          0.83610000       0.63140000       0.59800000
    42  H          0.66390000       0.13140000       0.90200000
    43  H          0.16390000       0.36860000       0.40200000
    44  H          0.33610000       0.86860000       0.09800000
    45  H          0.41810000       0.23230000       0.20890000
    46  H          0.08190000       0.73230000       0.29110000
    47  H          0.58190000       0.76770000       0.79110000
    48  H          0.91810000       0.26770000       0.70890000
    49  H          0.64130000       0.96370000       0.24030000
    50  H          0.85870000       0.46370000       0.25970000
    51  H          0.35870000       0.03630000       0.75970000
    52  H          0.14130000       0.53630000       0.74030000
    53  H          0.93230000       0.01150000       0.39620000
    54  H          0.56770000       0.51150000       0.10380000
    55  H          0.06770000      -0.01150000       0.60380000
    56  H          0.43230000       0.48850000       0.89620000
    57  H          0.94540000       0.30750000       0.52790000
    58  H          0.55460000       0.80750000       0.97210000
    59  H          0.05460000       0.69250000       0.47210000
    60  H          0.44540000       0.19250000       0.02790000
    61  H          0.60860000       0.07760000       0.57460000
    62  H          0.89140000       0.57760000       0.92540000
    63  H          0.39140000       0.92240000       0.42540000
    64  H          0.10860000       0.42240000       0.07460000
    65  H          0.32060000       0.60280000       0.25750000
    66  H          0.17940000       0.10280000       0.24250000
    67  H          0.67940000       0.39720000       0.74250000
    68  H          0.82060000       0.89720000       0.75750000
