data_SALOXM
_symmetry_space_group_name_H-M    'P1'
_symmetry_Int_Tables_number       1
loop_
_symmetry_equiv_pos_site_id
_symmetry_equiv_pos_as_xyz
1 x,y,z
_cell_length_a                   10.411
_cell_length_b                   5.0785
_cell_length_c                   13.601
_cell_angle_alpha                90.0
_cell_angle_beta                 112.92
_cell_angle_gamma                90.0
loop_
_atom_site_label
_atom_site_type_symbol
_atom_site_fract_x
_atom_site_fract_y
_atom_site_fract_z
     1  C          0.25030000       0.48070000       0.00930000
     2  C          0.74970000      -0.01930000       0.49070000
     3  C          0.74970000       0.51930000      -0.00930000
     4  C          0.25030000       0.01930000       0.50930000
     5  C          0.20490000       0.47740000       0.09450000
     6  C          0.79510000      -0.02260000       0.40550000
     7  C          0.79510000       0.52260000       0.90550000
     8  C          0.20490000       0.02260000       0.59450000
     9  C          0.26140000       0.65500000       0.17810000
    10  C          0.73860000       0.15500000       0.32190000
    11  C          0.73860000       0.34500000       0.82190000
    12  C          0.26140000       0.84500000       0.67810000
    13  C          0.36410000       0.82730000       0.18080000
    14  C          0.63590000       0.32730000       0.31920000
    15  C          0.63590000       0.17270000       0.81920000
    16  C          0.36410000       0.67270000       0.68080000
    17  C          0.41220000       0.83160000       0.09850000
    18  C          0.58780000       0.33160000       0.40150000
    19  C          0.58780000       0.16840000       0.90150000
    20  C          0.41220000       0.66840000       0.59850000
    21  C          0.35360000       0.66000000       0.01410000
    22  C          0.64640000       0.16000000       0.48590000
    23  C          0.64640000       0.34000000       0.98590000
    24  C          0.35360000       0.84000000       0.51410000
    25  C          0.19170000       0.30370000       0.91810000
    26  C          0.80830000       0.80370000       0.58190000
    27  C          0.80830000       0.69630000       0.08190000
    28  C          0.19170000       0.19630000       0.41810000
    29  H          0.22000000       0.65500000       0.22800000
    30  H          0.78000000       0.15500000       0.27200000
    31  H          0.78000000       0.34500000       0.77200000
    32  H          0.22000000       0.84500000       0.72800000
    33  H          0.39300000      -0.01600000       0.22700000
    34  H          0.60700000       0.48400000       0.27300000
    35  H          0.60700000       0.01600000       0.77300000
    36  H          0.39300000       0.51600000       0.72700000
    37  H          0.49000000      -0.00500000       0.10200000
    38  H          0.51000000       0.49500000       0.39800000
    39  H          0.51000000       0.00500000       0.89800000
    40  H          0.49000000       0.50500000       0.60200000
    41  H          0.39600000       0.63900000       0.96100000
    42  H          0.60400000       0.13900000       0.53900000
    43  H          0.60400000       0.36100000       0.03900000
    44  H          0.39600000       0.86100000       0.46100000
    45  H          0.23800000       0.30800000       0.85900000
    46  H          0.76200000       0.80800000       0.64100000
    47  H          0.76200000       0.69200000       0.14100000
    48  H          0.23800000       0.19200000       0.35900000
    49  H          0.00900000       0.86300000       0.83400000
    50  H         -0.00900000       0.36300000       0.66600000
    51  H         -0.00900000       0.13700000       0.16600000
    52  H          0.00900000       0.63700000       0.33400000
    53  H          0.08500000       0.20000000       0.04000000
    54  H          0.91500000       0.70000000       0.46000000
    55  H          0.91500000       0.80000000       0.96000000
    56  H          0.08500000       0.30000000       0.54000000
    57  N          0.10060000       0.13170000       0.91270000
    58  N          0.89940000       0.63170000       0.58730000
    59  N          0.89940000       0.86830000       0.08730000
    60  N          0.10060000       0.36830000       0.41270000
    61  O          0.10450000       0.30760000       0.09540000
    62  O          0.89550000       0.80760000       0.40460000
    63  O          0.89550000       0.69240000       0.90460000
    64  O          0.10450000       0.19240000       0.59540000
    65  O          0.05920000      -0.02020000       0.81910000
    66  O          0.94080000       0.47980000       0.68090000
    67  O          0.94080000       0.02020000       0.18090000
    68  O          0.05920000       0.52020000       0.31910000
