data_SALOXM02
_symmetry_space_group_name_H-M    'P1'
_symmetry_Int_Tables_number       1
loop_
_symmetry_equiv_pos_site_id
_symmetry_equiv_pos_as_xyz
1 x,y,z
_cell_length_a                   7.66912
_cell_length_b                   12.71623
_cell_length_c                   13.36523
_cell_angle_alpha                90.0
_cell_angle_beta                 90.0
_cell_angle_gamma                90.0
loop_
_atom_site_label
_atom_site_type_symbol
_atom_site_fract_x
_atom_site_fract_y
_atom_site_fract_z
     1  O          0.28112000       0.27564100       0.02463900
     2  O          0.21888000       0.72435900       0.52463900
     3  O          0.78112000       0.22435900       0.97536100
     4  O          0.71888000       0.77564100       0.47536100
     5  N          0.25082000       0.22621100       0.11662100
     6  N          0.24918000       0.77378900       0.61662100
     7  N          0.75082000       0.27378900       0.88337900
     8  N          0.74918000       0.72621100       0.38337900
     9  C          0.18282000       0.13549130       0.10589120
    10  C          0.31718000       0.86450870       0.60589120
    11  C          0.68282000       0.36450870       0.89410880
    12  C          0.81718000       0.63549130       0.39410880
    13  C          0.14372000       0.07010130       0.19232120
    14  C          0.35628000       0.92989870       0.69232120
    15  C          0.64372000       0.42989870       0.80767880
    16  C          0.85628000       0.57010130       0.30767880
    17  C          0.17792000       0.10191120       0.29136120
    18  C          0.32208000       0.89808880       0.79136120
    19  C          0.67792000       0.39808880       0.70863880
    20  C          0.82208000       0.60191120       0.20863880
    21  O          0.24867170       0.19816900       0.31221900
    22  O          0.25132830       0.80183100       0.81221900
    23  O          0.74867170       0.30183100       0.68778100
    24  O          0.75132830       0.69816900       0.18778100
    25  C          0.14212000       0.03505140       0.37079120
    26  C          0.35788000       0.96494860       0.87079120
    27  C          0.64212000       0.46494860       0.62920880
    28  C          0.85788000       0.53505140       0.12920880
    29  C          0.07162000       0.93686860       0.35366140
    30  C          0.42838000       0.06313140       0.85366140
    31  C          0.57162000       0.56313140       0.64633860
    32  C          0.92838000       0.43686860       0.14633860
    33  C          0.03562000       0.90434860       0.25657150
    34  C          0.46438000       0.09565140       0.75657150
    35  C          0.53562000       0.59565140       0.74342850
    36  C          0.96438000       0.40434860       0.24342850
    37  C          0.07252000       0.97002870       0.17736130
    38  C          0.42748000       0.02997130       0.67736130
    39  C          0.57252000       0.52997130       0.82263870
    40  C          0.92748000       0.47002870       0.32263870
    41  H          0.31530000       0.33341700       0.04101800
    42  H          0.18470000       0.66658300       0.54101800
    43  H          0.81530000       0.16658300       0.95898200
    44  H          0.68470000       0.83341700       0.45898200
    45  H          0.15800000       0.10960000       0.04270000
    46  H          0.34200000       0.89040000       0.54270000
    47  H          0.65800000       0.39040000       0.95730000
    48  H          0.84200000       0.60960000       0.45730000
    49  H          0.27030000       0.22511700       0.25451500
    50  H          0.22970000       0.77488300       0.75451500
    51  H          0.77030000       0.27488300       0.74548500
    52  H          0.72970000       0.72511700       0.24548500
    53  H          0.16670000       0.05730000       0.43650000
    54  H          0.33330000       0.94270000       0.93650000
    55  H          0.66670000       0.44270000       0.56350000
    56  H          0.83330000       0.55730000       0.06350000
    57  H          0.04820000       0.89390000       0.40910000
    58  H          0.45180000       0.10610000       0.90910000
    59  H          0.54820000       0.60610000       0.59090000
    60  H          0.95180000       0.39390000       0.09090000
    61  H         -0.01410000       0.83660000       0.24580000
    62  H          0.51410000       0.16340000       0.74580000
    63  H          0.48590000       0.66340000       0.75420000
    64  H          0.01410000       0.33660000       0.25420000
    65  H          0.05440000       0.94770000       0.11010000
    66  H          0.44560000       0.05230000       0.61010000
    67  H          0.55440000       0.55230000       0.88990000
    68  H          0.94560000       0.44770000       0.38990000
    69  O          0.78652000       0.25663110       0.48433100
    70  O          0.71348000       0.74336890       0.98433100
    71  O          0.28652000       0.24336890       0.51566900
    72  O          0.21348000       0.75663110       0.01566900
    73  N          0.71612000       0.16559100       0.44076110
    74  N          0.78388000       0.83440900       0.94076110
    75  N          0.21612000       0.33440900       0.55923890
    76  N          0.28388000       0.66559100       0.05923890
    77  C          0.72092000       0.17066120       0.34528130
    78  C          0.77908000       0.82933880       0.84528130
    79  C          0.22092000       0.32933880       0.65471870
    80  C          0.27908000       0.67066120       0.15471870
    81  C          0.65552000       0.08496130       0.28352120
    82  C          0.84448000       0.91503870       0.78352120
    83  C          0.15552000       0.41503870       0.71647880
    84  C          0.34448000       0.58496130       0.21647880
    85  C          0.58912000      -0.00828120       0.32393110
    86  C          0.91088000       0.00828120       0.82393110
    87  C          0.08912000       0.50828120       0.67606890
    88  C          0.41088000       0.49171880       0.17606890
    89  O          0.58579170       0.97507100       0.42557800
    90  O          0.91420830       0.02492900       0.92557800
    91  O          0.08579170       0.52492900       0.57442200
    92  O          0.41420830       0.47507100       0.07442200
    93  C          0.52442000       0.91326870       0.26243130
    94  C          0.97558000       0.08673130       0.76243130
    95  C          0.02442000       0.58673130       0.73756870
    96  C          0.47558000       0.41326870       0.23756870
    97  C          0.52852000       0.92576860       0.15954130
    98  C          0.97148000       0.07423140       0.65954130
    99  C          0.02852000       0.57423140       0.84045870
   100  C          0.47148000       0.42576860       0.34045870
   101  C          0.59592000       0.01694140       0.11784120
   102  C          0.90408000       0.98305860       0.61784120
   103  C          0.09592000       0.48305860       0.88215880
   104  C          0.40408000       0.51694140       0.38215880
   105  C          0.65772000       0.09598130       0.17902120
   106  C          0.84228000       0.90401870       0.67902120
   107  C          0.15772000       0.40401870       0.82097880
   108  C          0.34228000       0.59598130       0.32097880
   109  H          0.76830000       0.25011800       0.54791700
   110  H          0.73170000       0.74988200       0.04791700
   111  H          0.26830000       0.24988200       0.45208300
   112  H          0.23170000       0.75011800       0.95208300
   113  H          0.76540000       0.23050000       0.31300000
   114  H          0.73460000       0.76950000       0.81300000
   115  H          0.26540000       0.26950000       0.68700000
   116  H          0.23460000       0.73050000       0.18700000
   117  H          0.62430000       0.03231600       0.45011500
   118  H          0.87570000       0.96768400       0.95011500
   119  H          0.12430000       0.46768400       0.54988500
   120  H          0.37570000       0.53231600       0.04988500
   121  H          0.47610000       0.85130000       0.29230000
   122  H          0.02390000       0.14870000       0.79230000
   123  H          0.97610000       0.64870000       0.70770000
   124  H          0.52390000       0.35130000       0.20770000
   125  H          0.47910000       0.87400000       0.11800000
   126  H          0.02090000       0.12600000       0.61800000
   127  H          0.97910000       0.62600000       0.88200000
   128  H          0.52090000       0.37400000       0.38200000
   129  H          0.59490000       0.02600000       0.04720000
   130  H          0.90510000       0.97400000       0.54720000
   131  H          0.09490000       0.47400000       0.95280000
   132  H          0.40510000       0.52600000       0.45280000
   133  H          0.70260000       0.15810000       0.15080000
   134  H          0.79740000       0.84190000       0.65080000
   135  H          0.20260000       0.34190000       0.84920000
   136  H          0.29740000       0.65810000       0.34920000
