data_SANGUN
_symmetry_space_group_name_H-M    'P1'
_symmetry_Int_Tables_number       1
loop_
_symmetry_equiv_pos_site_id
_symmetry_equiv_pos_as_xyz
1 x,y,z
_cell_length_a                   7.87812
_cell_length_b                   13.244615
_cell_length_c                   5.713411
_cell_angle_alpha                90.0
_cell_angle_beta                 101.146
_cell_angle_gamma                90.0
loop_
_atom_site_label
_atom_site_type_symbol
_atom_site_fract_x
_atom_site_fract_y
_atom_site_fract_z
     1  Cl         0.02727000       0.33900800       0.83873000
     2  Cl         0.97273000       0.83900800       0.66127000
     3  Cl         0.97273000       0.66099200       0.16127000
     4  Cl         0.02727000       0.16099200       0.33873000
     5  N          0.56360000       0.35414000       0.53630000
     6  N          0.43640000       0.85414000       0.96370000
     7  N          0.43640000       0.64586000       0.46370000
     8  N          0.56360000       0.14586000       0.03630000
     9  N          0.69340000       0.33163000       0.69741400
    10  N          0.30660000       0.83163000       0.80258600
    11  N          0.30660000       0.66837000       0.30258600
    12  N          0.69340000       0.16837000       0.19741400
    13  N          0.39040000       0.41606000       0.22711400
    14  N          0.60960000       0.91606000       0.27288600
    15  N          0.60960000       0.58394000       0.77288600
    16  N          0.39040000       0.08394000       0.72711400
    17  N          0.39840000       0.33815000       0.57030000
    18  N          0.60160000       0.83815000       0.92970000
    19  N          0.60160000       0.66185000       0.42970000
    20  N          0.39840000       0.16185000       0.07030000
    21  N          0.29220000       0.37523000       0.38211100
    22  N          0.70780000       0.87523000       0.11788900
    23  N          0.70780000       0.62477000       0.61788900
    24  N          0.29220000       0.12477000       0.88211100
    25  C          0.71230000       0.42423000       0.25741700
    26  C          0.28770000       0.92423000       0.24258300
    27  C          0.28770000       0.57577000       0.74258300
    28  C          0.71230000       0.07577000       0.75741700
    29  H          0.71521700       0.45521600       0.11245900
    30  H          0.28478300       0.95521600       0.38754100
    31  H          0.28478300       0.54478400       0.88754100
    32  H          0.71521700       0.04478400       0.61245900
    33  C          0.85030000       0.35734000       0.63620000
    34  C          0.14970000       0.85734000       0.86380000
    35  C          0.14970000       0.64266000       0.36380000
    36  C          0.85030000       0.14266000       0.13620000
    37  C          0.54960000       0.40026000       0.32220000
    38  C          0.45040000       0.90026000       0.17780000
    39  C          0.45040000       0.59974000       0.67780000
    40  C          0.54960000       0.09974000       0.82220000
    41  C          0.85730000       0.40103000       0.40981000
    42  C          0.14270000       0.90103000       0.09019000
    43  C          0.14270000       0.59897000       0.59019000
    44  C          0.85730000       0.09897000       0.90981000
    45  H          0.96416100       0.41334600       0.36864300
    46  H          0.03583900       0.91334600       0.13135700
    47  H          0.03583900       0.58665400       0.63135700
    48  H          0.96416100       0.08665400       0.86864300
