data_SANGUN08
_symmetry_space_group_name_H-M    'P1'
_symmetry_Int_Tables_number       1
loop_
_symmetry_equiv_pos_site_id
_symmetry_equiv_pos_as_xyz
1 x,y,z
_cell_length_a                   7.06512
_cell_length_b                   8.78592
_cell_length_c                   10.09062
_cell_angle_alpha                90.0
_cell_angle_beta                 90.0
_cell_angle_gamma                90.0
loop_
_atom_site_label
_atom_site_type_symbol
_atom_site_fract_x
_atom_site_fract_y
_atom_site_fract_z
     1  Cl         0.29048160       0.33468100       0.32125120
     2  Cl         0.20951840       0.66531900       0.82125120
     3  Cl         0.70951840       0.83468100       0.17874880
     4  Cl         0.79048160       0.16531900       0.67874880
     5  N          0.35564000       0.74853000       0.41233000
     6  N          0.14436000       0.25147000       0.91233000
     7  N          0.64436000       0.24853000       0.08767000
     8  N          0.85564000       0.75147000       0.58767000
     9  N          0.36594000       0.59533000       0.41883000
    10  N          0.13406000       0.40467000       0.91883000
    11  N          0.63406000       0.09533000       0.08117000
    12  N          0.86594000       0.90467000       0.58117000
    13  N          0.42775000       0.83964000       0.50623000
    14  N          0.07225000       0.16036000       0.00623000
    15  N          0.57225000       0.33964000      -0.00623000
    16  N          0.92775000       0.66036000       0.49377000
    17  N          0.38936000       0.97744000       0.46574000
    18  N          0.11064000       0.02256000       0.96574000
    19  N          0.61064000       0.47744000       0.03426000
    20  N          0.88936000       0.52256000       0.53426000
    21  N          0.29706000       0.98043000       0.34943000
    22  N          0.20294000       0.01957000       0.84943000
    23  N          0.70294000       0.48043000       0.15057000
    24  N          0.79706000       0.51957000       0.65057000
    25  C          0.27655000       0.83434000       0.31563000
    26  C          0.22345000       0.16566000       0.81563000
    27  C          0.72345000       0.33434000       0.18437000
    28  C          0.77655000       0.66566000       0.68437000
    29  C          0.20146000       0.60484000       0.20903000
    30  C          0.29854000       0.39516000       0.70903000
    31  C          0.79854000       0.10484000       0.29097000
    32  C          0.70146000       0.89516000       0.79097000
    33  H          0.14917200       0.54871100       0.13997700
    34  H          0.35082800       0.45128900       0.63997700
    35  H          0.85082800       0.04871100       0.36002300
    36  H          0.64917200       0.95128900       0.86002300
    37  C          0.28695000       0.53054000       0.31773000
    38  C          0.21305000       0.46946000       0.81773000
    39  C          0.71305000       0.03054000       0.18227000
    40  C          0.78695000       0.96946000       0.68227000
    41  C          0.19656000       0.75774000       0.20683000
    42  C          0.30344000       0.24226000       0.70683000
    43  C          0.80344000       0.25774000       0.29317000
    44  C          0.69656000       0.74226000       0.79317000
    45  H          0.14269500       0.81051700       0.13634400
    46  H          0.35730500       0.18948300       0.63634400
    47  H          0.85730500       0.31051700       0.36365600
    48  H          0.64269500       0.68948300       0.86365600
