data_SANGUN20
_symmetry_space_group_name_H-M    'P1'
_symmetry_Int_Tables_number       1
loop_
_symmetry_equiv_pos_site_id
_symmetry_equiv_pos_as_xyz
1 x,y,z
_cell_length_a                   10.6974
_cell_length_b                   6.25457
_cell_length_c                   8.80121
_cell_angle_alpha                90.0
_cell_angle_beta                 90.0
_cell_angle_gamma                90.0
loop_
_atom_site_label
_atom_site_type_symbol
_atom_site_fract_x
_atom_site_fract_y
_atom_site_fract_z
     1  Cl         0.61551160       0.75000000       0.91127900
     2  Cl         0.88448840       0.25000000       0.41127900
     3  Cl         0.11551160       0.75000000       0.58872100
     4  Cl         0.38448840       0.25000000       0.08872100
     5  C          0.62420000       0.75000000       0.71585000
     6  C          0.87580000       0.25000000       0.21585000
     7  C          0.12420000       0.75000000       0.78415000
     8  C          0.37580000       0.25000000       0.28415000
     9  C          0.74711700       0.75000000       0.65267000
    10  C          0.75288300       0.25000000       0.15267000
    11  C          0.24711700       0.75000000       0.84733000
    12  C          0.25288300       0.25000000       0.34733000
    13  H          0.81855900       0.75000000       0.71270200
    14  H          0.68144100       0.25000000       0.21270200
    15  H          0.31855900       0.75000000       0.78729800
    16  H          0.18144100       0.25000000       0.28729800
    17  N          0.53531300       0.75000000       0.49285000
    18  N          0.96468700       0.25000000      -0.00715000
    19  N          0.03531300       0.75000000       0.00715000
    20  N          0.46468700       0.25000000       0.50715000
    21  N          0.61881200       0.75000000       0.26716000
    22  N          0.88118800       0.25000000       0.76716000
    23  N          0.11881200       0.75000000       0.23284000
    24  N          0.38118800       0.25000000       0.73284000
    25  N          0.52161200       0.75000000       0.64655000
    26  N          0.97838800       0.25000000       0.14655000
    27  N          0.02161200       0.75000000       0.85345000
    28  N          0.47838800       0.25000000       0.35345000
    29  C          0.75231700       0.75000000       0.49765000
    30  C          0.74768300       0.25000000      -0.00235000
    31  C          0.25231700       0.75000000       0.00235000
    32  C          0.24768300       0.25000000       0.50235000
    33  H          0.82963000       0.75000000       0.44943900
    34  H          0.67037000       0.25000000       0.94943900
    35  H          0.32963000       0.75000000       0.05056100
    36  H          0.17037000       0.25000000       0.55056100
    37  N          0.49171200       0.75000000       0.26176000
    38  N          0.00828800       0.25000000       0.76176000
    39  N         -0.00828800       0.75000000       0.23824000
    40  N          0.50828800       0.25000000       0.73824000
    41  N          0.44081100       0.75000000       0.39564000
    42  N          0.05918900       0.25000000       0.89564000
    43  N          0.94081100       0.75000000       0.10436000
    44  N          0.55918900       0.25000000       0.60436000
    45  C          0.64921800       0.75000000       0.41506000
    46  C          0.85078200       0.25000000       0.91506000
    47  C          0.14921800       0.75000000       0.08494000
    48  C          0.35078200       0.25000000       0.58494000
