data_SATPIO02
_symmetry_space_group_name_H-M    'P1'
_symmetry_Int_Tables_number       1
loop_
_symmetry_equiv_pos_site_id
_symmetry_equiv_pos_as_xyz
1 x,y,z
_cell_length_a                   12.38018
_cell_length_b                   8.72924
_cell_length_c                   9.97385
_cell_angle_alpha                90.0
_cell_angle_beta                 91.0534
_cell_angle_gamma                90.0
loop_
_atom_site_label
_atom_site_type_symbol
_atom_site_fract_x
_atom_site_fract_y
_atom_site_fract_z
     1  S          0.19446400       0.62736600       0.37708500
     2  S          0.80553600       0.12736600       0.12291500
     3  S          0.80553600       0.37263400       0.62291500
     4  S          0.19446400       0.87263400       0.87708500
     5  O          0.11949110       0.61562000       0.26385160
     6  O          0.88050890       0.11562000       0.23614840
     7  O          0.88050890       0.38438000       0.73614840
     8  O          0.11949110       0.88438000       0.76385160
     9  O          0.16382120       0.53050180       0.48833160
    10  O          0.83617880       0.03050180       0.01166840
    11  O          0.83617880       0.46949820       0.51166840
    12  O          0.16382120       0.96949820      -0.01166840
    13  O          0.21287120       0.78530170       0.41592170
    14  O          0.78712880       0.28530170       0.08407830
    15  O          0.78712880       0.21469830       0.58407830
    16  O          0.21287120       0.71469830       0.91592170
    17  C          0.31961150       0.55212000       0.32112000
    18  C          0.68038850       0.05212000       0.17888000
    19  C          0.68038850       0.44788000       0.67888000
    20  C          0.31961150       0.94788000       0.82112000
    21  C          0.32729170       0.51112000       0.18992000
    22  C          0.67270830       0.01112000       0.31008000
    23  C          0.67270830       0.48888000       0.81008000
    24  C          0.32729170      -0.01112000       0.68992000
    25  C          0.42088170       0.43742000       0.14272000
    26  C          0.57911830       0.93742000       0.35728000
    27  C          0.57911830       0.56258000       0.85728000
    28  C          0.42088170       0.06258000       0.64272000
    29  C          0.50480170       0.40632000       0.22812000
    30  C          0.49519830       0.90632000       0.27188000
    31  C          0.49519830       0.59368000       0.77188000
    32  C          0.50480170       0.09368000       0.72812000
    33  C          0.40898160       0.57772000       0.54862000
    34  C          0.59101840       0.07772000       0.95138000
    35  C          0.59101840       0.42228000       0.45138000
    36  C          0.40898160       0.92228000       0.04862000
    37  C          0.40834150       0.52862000       0.41372000
    38  C          0.59165850       0.02862000       0.08628000
    39  C          0.59165850       0.47138000       0.58628000
    40  C          0.40834150       0.97138000       0.91372000
    41  C          0.50197160       0.45132000       0.36502000
    42  C          0.49802840       0.95132000       0.13498000
    43  C          0.49802840       0.54868000       0.63498000
    44  C          0.50197160       0.04868000       0.86502000
    45  H          0.26970000       0.53210000       0.13000000
    46  H          0.73030000       0.03210000       0.37000000
    47  H          0.73030000       0.46790000       0.87000000
    48  H          0.26970000       0.96790000       0.63000000
    49  H          0.42510000       0.40970000       0.05180000
    50  H          0.57490000       0.90970000       0.44820000
    51  H          0.57490000       0.59030000       0.94820000
    52  H          0.42510000       0.09030000       0.55180000
    53  H          0.56560000       0.35430000       0.19620000
    54  H          0.43440000       0.85430000       0.30380000
    55  H          0.43440000       0.64570000       0.80380000
    56  H          0.56560000       0.14570000       0.69620000
    57  H          0.34890000       0.63070000       0.58150000
    58  H          0.65110000       0.13070000       0.91850000
    59  H          0.65110000       0.36930000       0.41850000
    60  H          0.34890000       0.86930000       0.08150000
    61  N          0.09159130       0.49802000       0.75007180
    62  N          0.90840870      -0.00198000       0.74992820
    63  N          0.90840870       0.50198000       0.24992820
    64  N          0.09159130       0.00198000       0.25007180
    65  C          0.25696180       0.35772000       0.81322000
    66  C          0.74303820       0.85772000       0.68678000
    67  C          0.74303820       0.64228000       0.18678000
    68  C          0.25696180       0.14228000       0.31322000
    69  C          0.13446170       0.35322000       0.81202000
    70  C          0.86553830       0.85322000       0.68798000
    71  C          0.86553830       0.64678000       0.18798000
    72  C          0.13446170       0.14678000       0.31202000
    73  C          0.08782000       0.33602000       0.94962000
    74  C          0.91218000       0.83602000       0.55038000
    75  C          0.91218000       0.66398000       0.05038000
    76  C          0.08782000       0.16398000       0.44962000
    77  H          0.01890000       0.49570000       0.74880000
    78  H          0.98110000      -0.00430000       0.75120000
    79  H          0.98110000       0.50430000       0.25120000
    80  H          0.01890000       0.00430000       0.24880000
    81  H          0.11540000       0.50620000       0.66560000
    82  H          0.88460000       0.00620000       0.83440000
    83  H          0.88460000       0.49380000       0.33440000
    84  H          0.11540000      -0.00620000       0.16560000
    85  H          0.11480000       0.57890000       0.79850000
    86  H          0.88520000       0.07890000       0.70150000
    87  H          0.88520000       0.42110000       0.20150000
    88  H          0.11480000       0.92110000       0.29850000
    89  H          0.28210000       0.36860000       0.72210000
    90  H          0.71790000       0.86860000       0.77790000
    91  H          0.71790000       0.63140000       0.27790000
    92  H          0.28210000       0.13140000       0.22210000
    93  H          0.28520000       0.26350000       0.85160000
    94  H          0.71480000       0.76350000       0.64840000
    95  H          0.71480000       0.73650000       0.14840000
    96  H          0.28520000       0.23650000       0.35160000
    97  H          0.28200000       0.44410000       0.86650000
    98  H          0.71800000       0.94410000       0.63350000
    99  H          0.71800000       0.55590000       0.13350000
   100  H          0.28200000       0.05590000       0.36650000
   101  H          0.11020000       0.26550000       0.75620000
   102  H          0.88980000       0.76550000       0.74380000
   103  H          0.88980000       0.73450000       0.24380000
   104  H          0.11020000       0.23450000       0.25620000
   105  H          0.00960000       0.33300000       0.94230000
   106  H         -0.00960000       0.83300000       0.55770000
   107  H         -0.00960000       0.66700000       0.05770000
   108  H          0.00960000       0.16700000       0.44230000
   109  H          0.10980000       0.42220000       0.00510000
   110  H          0.89020000       0.92220000       0.49490000
   111  H          0.89020000       0.57780000      -0.00510000
   112  H          0.10980000       0.07780000       0.50510000
   113  H          0.11390000       0.24170000      -0.00990000
   114  H          0.88610000       0.74170000       0.50990000
   115  H          0.88610000       0.75830000       0.00990000
   116  H          0.11390000       0.25830000       0.49010000
