data_SATPIO
_symmetry_space_group_name_H-M    'P1'
_symmetry_Int_Tables_number       1
loop_
_symmetry_equiv_pos_site_id
_symmetry_equiv_pos_as_xyz
1 x,y,z
_cell_length_a                   5.2743417
_cell_length_b                   9.90744
_cell_length_c                   11.88644
_cell_angle_alpha                111.9662
_cell_angle_beta                 93.6042
_cell_angle_gamma                99.9602
loop_
_atom_site_label
_atom_site_type_symbol
_atom_site_fract_x
_atom_site_fract_y
_atom_site_fract_z
     1  S          0.88041120       0.29487700       0.33749500
     2  S          0.11958880       0.70512300       0.66250500
     3  O          0.06783000       0.31192000       0.43795170
     4  O          0.93217000       0.68808000       0.56204830
     5  O          0.61843000       0.29812000       0.36938170
     6  O          0.38157000       0.70188000       0.63061830
     7  O          0.95784000       0.39962000       0.28058180
     8  O          0.04216000       0.60038000       0.71941820
     9  C          0.86165000       0.11502000       0.22162000
    10  C          0.13835000       0.88498000       0.77838000
    11  C          0.03095000       0.03322000       0.23722000
    12  C         -0.03095000       0.96678000       0.76278000
    13  C          0.03265000       0.89198000       0.14612000
    14  C         -0.03265000       0.10802000       0.85388000
    15  C          0.86135000       0.83638000       0.04102000
    16  C          0.13865000       0.16362000       0.95898000
    17  C          0.49815000       0.14172000       0.08862000
    18  C          0.50185000       0.85828000       0.91138000
    19  C          0.67535000       0.06152000       0.11232000
    20  C          0.32465000       0.93848000       0.88768000
    21  C          0.67765000       0.91748000       0.02132000
    22  C          0.32235000       0.08252000       0.97868000
    23  H          0.14930000       0.07070000       0.30970000
    24  H          0.85070000       0.92930000       0.69030000
    25  H          0.15190000       0.83670000       0.15810000
    26  H          0.84810000       0.16330000       0.84190000
    27  H          0.86460000       0.74300000       0.98060000
    28  H          0.13540000       0.25700000       0.01940000
    29  H          0.49640000       0.23670000       0.14710000
    30  H          0.50360000       0.76330000       0.85290000
    31  N          0.53314000       0.42692000       0.61822000
    32  N          0.46686000       0.57308000       0.38178000
    33  C          0.51389000       0.18573000       0.62693000
    34  C          0.48611000       0.81427000       0.37307000
    35  C          0.43447000       0.32833000       0.67882000
    36  C          0.56553000       0.67167000       0.32118000
    37  C          0.50629000       0.40804000       0.81563000
    38  C          0.49371000       0.59196000       0.18437000
    39  H          0.47810000       0.51270000       0.65050000
    40  H          0.52190000       0.48730000       0.34950000
    41  H          0.47380000       0.38240000       0.53750000
    42  H          0.52620000       0.61760000       0.46250000
    43  H          0.70800000       0.44610000       0.62930000
    44  H          0.29200000       0.55390000       0.37070000
    45  H          0.45880000       0.14090000       0.53910000
    46  H          0.54120000       0.85910000       0.46090000
    47  H          0.43380000       0.11980000       0.66390000
    48  H          0.56620000       0.88020000       0.33610000
    49  H          0.70150000       0.20180000       0.64330000
    50  H          0.29850000       0.79820000       0.35670000
    51  H          0.24230000       0.30670000       0.66170000
    52  H          0.75770000       0.69330000       0.33830000
    53  H          0.44280000       0.49970000       0.84310000
    54  H          0.55720000       0.50030000       0.15690000
    55  H          0.69370000       0.43080000       0.83630000
    56  H          0.30630000       0.56920000       0.16370000
    57  H          0.42830000       0.34480000       0.85530000
    58  H          0.57170000       0.65520000       0.14470000
