data_SATPIO01
_symmetry_space_group_name_H-M    'P1'
_symmetry_Int_Tables_number       1
loop_
_symmetry_equiv_pos_site_id
_symmetry_equiv_pos_as_xyz
1 x,y,z
_cell_length_a                   19.42981
_cell_length_b                   12.16386
_cell_length_c                   11.19805
_cell_angle_alpha                90.0
_cell_angle_beta                 121.1672
_cell_angle_gamma                90.0
loop_
_atom_site_label
_atom_site_type_symbol
_atom_site_fract_x
_atom_site_fract_y
_atom_site_fract_z
     1  S          0.66444800       0.16287900       0.62580140
     2  S          0.33555200       0.16287900       0.87419860
     3  S          0.16444800       0.66287900       0.62580140
     4  S          0.83555200       0.66287900       0.87419860
     5  S          0.33555200       0.83712100       0.37419860
     6  S          0.66444800       0.83712100       0.12580140
     7  S          0.83555200       0.33712100       0.37419860
     8  S          0.16444800       0.33712100       0.12580140
     9  O          0.67042000       0.17492000       0.50163000
    10  O          0.32958000       0.17492000      -0.00163000
    11  O          0.17042000       0.67492000       0.50163000
    12  O          0.82958000       0.67492000      -0.00163000
    13  O          0.32958000       0.82508000       0.49837000
    14  O          0.67042000       0.82508000       0.00163000
    15  O          0.82958000       0.32508000       0.49837000
    16  O          0.17042000       0.32508000       0.00163000
    17  O          0.69802000       0.05962000       0.69644000
    18  O          0.30198000       0.05962000       0.80356000
    19  O          0.19802000       0.55962000       0.69644000
    20  O          0.80198000       0.55962000       0.80356000
    21  O          0.30198000       0.94038000       0.30356000
    22  O          0.69802000       0.94038000       0.19644000
    23  O          0.80198000       0.44038000       0.30356000
    24  O          0.19802000       0.44038000       0.19644000
    25  O          0.69737190       0.25672000       0.71633000
    26  O          0.30262810       0.25672000       0.78367000
    27  O          0.19737190       0.75672000       0.71633000
    28  O          0.80262810       0.75672000       0.78367000
    29  O          0.30262810       0.74328000       0.28367000
    30  O          0.69737190       0.74328000       0.21633000
    31  O          0.80262810       0.24328000       0.28367000
    32  O          0.19737190       0.24328000       0.21633000
    33  C          0.56083000       0.16083000       0.56755000
    34  C          0.43917000       0.16083000       0.93245000
    35  C          0.06083000       0.66083000       0.56755000
    36  C          0.93917000       0.66083000       0.93245000
    37  C          0.43917000       0.83917000       0.43245000
    38  C          0.56083000       0.83917000       0.06755000
    39  C          0.93917000       0.33917000       0.43245000
    40  C          0.06083000       0.33917000       0.06755000
    41  C          0.50753000       0.17714000       0.42675000
    42  C          0.49247000       0.17714000       0.07325000
    43  C          0.00753000       0.67714000       0.42675000
    44  C         -0.00753000       0.67714000       0.07325000
    45  C          0.49247000       0.82286000       0.57325000
    46  C          0.50753000       0.82286000       0.92675000
    47  C         -0.00753000       0.32286000       0.57325000
    48  C          0.00753000       0.32286000       0.92675000
    49  C          0.42483000       0.18105000       0.37526000
    50  C          0.57517000       0.18105000       0.12474000
    51  C          0.92483000       0.68105000       0.37526000
    52  C          0.07517000       0.68105000       0.12474000
    53  C          0.57517000       0.81895000       0.62474000
    54  C          0.42483000       0.81895000       0.87526000
    55  C          0.07517000       0.31895000       0.62474000
    56  C          0.92483000       0.31895000       0.87526000
    57  C          0.39573000       0.16614000       0.46105000
    58  C          0.60427000       0.16614000       0.03895000
    59  C          0.89573000       0.66614000       0.46105000
    60  C          0.10427000       0.66614000       0.03895000
    61  C          0.60427000       0.83386000       0.53895000
    62  C          0.39573000       0.83386000       0.96105000
    63  C          0.10427000       0.33386000       0.53895000
    64  C          0.89573000       0.33386000       0.96105000
    65  C          0.58363000       0.13216000       0.80746000
    66  C          0.41637000       0.13216000       0.69254000
    67  C          0.08363000       0.63216000       0.80746000
    68  C          0.91637000       0.63216000       0.69254000
    69  C          0.41637000       0.86784000       0.19254000
    70  C          0.58363000       0.86784000       0.30746000
    71  C          0.91637000       0.36784000       0.19254000
    72  C          0.08363000       0.36784000       0.30746000
    73  C          0.53262000       0.14673000       0.65975000
    74  C          0.46738000       0.14673000       0.84025000
    75  C          0.03262000       0.64673000       0.65975000
    76  C          0.96738000       0.64673000       0.84025000
    77  C          0.46738000       0.85327000       0.34025000
    78  C          0.53262000       0.85327000       0.15975000
    79  C          0.96738000       0.35327000       0.34025000
    80  C          0.03262000       0.35327000       0.15975000
    81  C          0.44803000       0.14833000       0.60285000
    82  C          0.55197000       0.14833000       0.89715000
    83  C          0.94803000       0.64833000       0.60285000
    84  C          0.05197000       0.64833000       0.89715000
    85  C          0.55197000       0.85167000       0.39715000
    86  C          0.44803000       0.85167000       0.10285000
    87  C          0.05197000       0.35167000       0.39715000
    88  C          0.94803000       0.35167000       0.10285000
    89  H          0.52680000       0.18550000       0.36560000
    90  H          0.47320000       0.18550000       0.13440000
    91  H          0.02680000       0.68550000       0.36560000
    92  H          0.97320000       0.68550000       0.13440000
    93  H          0.47320000       0.81450000       0.63440000
    94  H          0.52680000       0.81450000       0.86560000
    95  H          0.97320000       0.31450000       0.63440000
    96  H          0.02680000       0.31450000       0.86560000
    97  H          0.38890000       0.19420000       0.27970000
    98  H          0.61110000       0.19420000       0.22030000
    99  H          0.88890000       0.69420000       0.27970000
   100  H          0.11110000       0.69420000       0.22030000
   101  H          0.61110000       0.80580000       0.72030000
   102  H          0.38890000       0.80580000       0.77970000
   103  H          0.11110000       0.30580000       0.72030000
   104  H          0.88890000       0.30580000       0.77970000
   105  H          0.33990000       0.16780000       0.42440000
   106  H          0.66010000       0.16780000       0.07560000
   107  H          0.83990000       0.66780000       0.42440000
   108  H          0.16010000       0.66780000       0.07560000
   109  H          0.66010000       0.83220000       0.57560000
   110  H          0.33990000       0.83220000       0.92440000
   111  H          0.16010000       0.33220000       0.57560000
   112  H          0.83990000       0.33220000       0.92440000
   113  H          0.63770000       0.11190000       0.84550000
   114  H          0.36230000       0.11190000       0.65450000
   115  H          0.13770000       0.61190000       0.84550000
   116  H          0.86230000       0.61190000       0.65450000
   117  H          0.36230000       0.88810000       0.15450000
   118  H          0.63770000       0.88810000       0.34550000
   119  H          0.86230000       0.38810000       0.15450000
   120  H          0.13770000       0.38810000       0.34550000
   121  N          0.72642000       0.42563000       0.57234000
   122  N          0.27358000       0.42563000       0.92766000
   123  N          0.22642000       0.92563000       0.57234000
   124  N          0.77358000       0.92563000       0.92766000
   125  N          0.27358000       0.57437000       0.42766000
   126  N          0.72642000       0.57437000       0.07234000
   127  N          0.77358000       0.07437000       0.42766000
   128  N          0.22642000       0.07437000       0.07234000
   129  C          0.59374000       0.49516000       0.50188000
   130  C          0.40626000       0.49516000      -0.00188000
   131  C          0.09374000      -0.00484000       0.50188000
   132  C          0.90626000      -0.00484000      -0.00188000
   133  C          0.40626000       0.50484000       0.49812000
   134  C          0.59374000       0.50484000       0.00188000
   135  C          0.90626000       0.00484000       0.49812000
   136  C          0.09374000       0.00484000       0.00188000
   137  C          0.65193000       0.47044000       0.45366000
   138  C          0.34807000       0.47044000       0.04634000
   139  C          0.15193000       0.97044000       0.45366000
   140  C          0.84807000       0.97044000       0.04634000
   141  C          0.34807000       0.52956000       0.54634000
   142  C          0.65193000       0.52956000       0.95366000
   143  C          0.84807000       0.02956000       0.54634000
   144  C          0.15193000       0.02956000       0.95366000
   145  C          0.67004000       0.56875000       0.39868000
   146  C          0.32996000       0.56875000       0.10132000
   147  C          0.17004000       0.06875000       0.39868000
   148  C          0.82996000       0.06875000       0.10132000
   149  C          0.32996000       0.43125000       0.60132000
   150  C          0.67004000       0.43125000       0.89868000
   151  C          0.82996000       0.93125000       0.60132000
   152  C          0.17004000       0.93125000       0.89868000
   153  H          0.71490000       0.36440000       0.60390000
   154  H          0.28510000       0.36440000       0.89610000
   155  H          0.21490000       0.86440000       0.60390000
   156  H          0.78510000       0.86440000       0.89610000
   157  H          0.28510000       0.63560000       0.39610000
   158  H          0.71490000       0.63560000       0.10390000
   159  H          0.78510000       0.13560000       0.39610000
   160  H          0.21490000       0.13560000       0.10390000
   161  H          0.74870000       0.47590000       0.64100000
   162  H          0.25130000       0.47590000       0.85900000
   163  H          0.24870000       0.97590000       0.64100000
   164  H          0.75130000       0.97590000       0.85900000
   165  H          0.25130000       0.52410000       0.35900000
   166  H          0.74870000       0.52410000       0.14100000
   167  H          0.75130000       0.02410000       0.35900000
   168  H          0.24870000       0.02410000       0.14100000
   169  H          0.76110000       0.40900000       0.54450000
   170  H          0.23890000       0.40900000       0.95550000
   171  H          0.26110000       0.90900000       0.54450000
   172  H          0.73890000       0.90900000       0.95550000
   173  H          0.23890000       0.59100000       0.45550000
   174  H          0.76110000       0.59100000       0.04450000
   175  H          0.73890000       0.09100000       0.45550000
   176  H          0.26110000       0.09100000       0.04450000
   177  H          0.58220000       0.42810000       0.53510000
   178  H          0.41780000       0.42810000       0.96490000
   179  H          0.08220000       0.92810000       0.53510000
   180  H          0.91780000       0.92810000       0.96490000
   181  H          0.41780000       0.57190000       0.46490000
   182  H          0.58220000       0.57190000       0.03510000
   183  H          0.91780000       0.07190000       0.46490000
   184  H          0.08220000       0.07190000       0.03510000
   185  H          0.54420000       0.52440000       0.42440000
   186  H          0.45580000       0.52440000       0.07560000
   187  H          0.04420000       0.02440000       0.42440000
   188  H          0.95580000       0.02440000       0.07560000
   189  H          0.45580000       0.47560000       0.57560000
   190  H          0.54420000       0.47560000       0.92440000
   191  H          0.95580000       0.97560000       0.57560000
   192  H          0.04420000       0.97560000       0.92440000
   193  H          0.61750000       0.54870000       0.57670000
   194  H          0.38250000       0.54870000       0.92330000
   195  H          0.11750000       0.04870000       0.57670000
   196  H          0.88250000       0.04870000       0.92330000
   197  H          0.38250000       0.45130000       0.42330000
   198  H          0.61750000       0.45130000       0.07670000
   199  H          0.88250000       0.95130000       0.42330000
   200  H          0.11750000       0.95130000       0.07670000
   201  H          0.62770000       0.41420000       0.37900000
   202  H          0.37230000       0.41420000       0.12100000
   203  H          0.12770000       0.91420000       0.37900000
   204  H          0.87230000       0.91420000       0.12100000
   205  H          0.37230000       0.58580000       0.62100000
   206  H          0.62770000       0.58580000       0.87900000
   207  H          0.87230000       0.08580000       0.62100000
   208  H          0.12770000       0.08580000       0.87900000
   209  H          0.70620000       0.54930000       0.36650000
   210  H          0.29380000       0.54930000       0.13350000
   211  H          0.20620000       0.04930000       0.36650000
   212  H          0.79380000       0.04930000       0.13350000
   213  H          0.29380000       0.45070000       0.63350000
   214  H          0.70620000       0.45070000       0.86650000
   215  H          0.79380000       0.95070000       0.63350000
   216  H          0.20620000       0.95070000       0.86650000
   217  H          0.69530000       0.62360000       0.47180000
   218  H          0.30470000       0.62360000       0.02820000
   219  H          0.19530000       0.12360000       0.47180000
   220  H          0.80470000       0.12360000       0.02820000
   221  H          0.30470000       0.37640000       0.52820000
   222  H          0.69530000       0.37640000       0.97180000
   223  H          0.80470000       0.87640000       0.52820000
   224  H          0.19530000       0.87640000       0.97180000
   225  H          0.62050000       0.59830000       0.32140000
   226  H          0.37950000       0.59830000       0.17860000
   227  H          0.12050000       0.09830000       0.32140000
   228  H          0.87950000       0.09830000       0.17860000
   229  H          0.37950000       0.40170000       0.67860000
   230  H          0.62050000       0.40170000       0.82140000
   231  H          0.87950000       0.90170000       0.67860000
   232  H          0.12050000       0.90170000       0.82140000
