data_SEDTUQ
_symmetry_space_group_name_H-M    'P1'
_symmetry_Int_Tables_number       1
loop_
_symmetry_equiv_pos_site_id
_symmetry_equiv_pos_as_xyz
1 x,y,z
_cell_length_a                   6.9411
_cell_length_b                   6.5691
_cell_length_c                   11.3152
_cell_angle_alpha                90.0
_cell_angle_beta                 90.552
_cell_angle_gamma                90.0
loop_
_atom_site_label
_atom_site_type_symbol
_atom_site_fract_x
_atom_site_fract_y
_atom_site_fract_z
     1  C          0.76768000       0.16893000       0.63691140
     2  C          0.73232000       0.66893000       0.86308860
     3  C          0.23232000       0.83107000       0.36308860
     4  C          0.26768000       0.33107000       0.13691140
     5  C          0.68638000       0.24072000       0.52539140
     6  C          0.81362000       0.74072000       0.97460860
     7  C          0.31362000       0.75928000       0.47460860
     8  C          0.18638000       0.25928000       0.02539140
     9  N          0.96508000       0.14412000       0.65814120
    10  N          0.53492000       0.64412000       0.84185880
    11  N          0.03492000       0.85588000       0.34185880
    12  N          0.46508000       0.35588000       0.15814120
    13  N          0.64358000       0.12712000       0.73375120
    14  N          0.85642000       0.62712000       0.76624880
    15  N          0.35642000       0.87288000       0.26624880
    16  N          0.14358000       0.37288000       0.23375120
    17  O          0.02294180       0.05782000       0.75058100
    18  O          0.47705820       0.55782000       0.74941900
    19  O          0.97705820       0.94218000       0.24941900
    20  O          0.52294180       0.44218000       0.25058100
    21  O          0.08126180       0.20092000       0.58124110
    22  O          0.41873820       0.70092000       0.91875890
    23  O          0.91873820       0.79908000       0.41875890
    24  O          0.58126180       0.29908000       0.08124110
    25  O          0.48060820       0.05742000       0.71261100
    26  O          0.01939180       0.55742000       0.78738900
    27  O          0.51939180       0.94258000       0.28738900
    28  O         -0.01939180       0.44258000       0.21261100
    29  O          0.69633820       0.16582000       0.83655100
    30  O          0.80366180       0.66582000       0.66344900
    31  O          0.30366180       0.83418000       0.16344900
    32  O          0.19633820       0.33418000       0.33655100
    33  N          0.79908000       0.30043000       0.43881130
    34  N          0.70092000       0.80043000       0.06118870
    35  N          0.20092000       0.69957000       0.56118870
    36  N          0.29908000       0.19957000       0.93881130
    37  H          0.74970000       0.34330000       0.37120000
    38  H          0.75030000       0.84330000       0.12880000
    39  H          0.25030000       0.65670000       0.62880000
    40  H          0.24970000       0.15670000       0.87120000
    41  H          0.92360000       0.29930000       0.44720000
    42  H          0.57640000       0.79930000       0.05280000
    43  H          0.07640000       0.70070000       0.55280000
    44  H          0.42360000       0.20070000       0.94720000
    45  N          0.49728000       0.25442000       0.51002140
    46  N          0.00272000       0.75442000      -0.01002140
    47  N          0.50272000       0.74558000       0.48997860
    48  N         -0.00272000       0.24558000       0.01002140
    49  H          0.45270000       0.29940000       0.44620000
    50  H          0.04730000       0.79940000       0.05380000
    51  H          0.54730000       0.70060000       0.55380000
    52  H          0.95270000       0.20060000       0.94620000
    53  H          0.41970000       0.20530000       0.55920000
    54  H          0.08030000       0.70530000       0.94080000
    55  H          0.58030000       0.79470000       0.44080000
    56  H          0.91970000       0.29470000       0.05920000
