data_SEDTUQ25
_symmetry_space_group_name_H-M    'P1'
_symmetry_Int_Tables_number       1
loop_
_symmetry_equiv_pos_site_id
_symmetry_equiv_pos_as_xyz
1 x,y,z
_cell_length_a                   13.3543
_cell_length_b                   6.8951
_cell_length_c                   12.0502
_cell_angle_alpha                90.0
_cell_angle_beta                 111.1028
_cell_angle_gamma                90.0
loop_
_atom_site_label
_atom_site_type_symbol
_atom_site_fract_x
_atom_site_fract_y
_atom_site_fract_z
     1  O          0.13205000       0.86765000       0.79258000
     2  O          0.36795000       0.36765000       0.70742000
     3  O          0.86795000       0.13235000       0.20742000
     4  O          0.63205000       0.63235000       0.29258000
     5  O          0.07945000       0.83188000       0.60495000
     6  O          0.42055000       0.33188000       0.89505000
     7  O          0.92055000       0.16812000       0.39505000
     8  O          0.57945000       0.66812000       0.10495000
     9  O          0.16185000       0.30418000       0.84815000
    10  O          0.33815000       0.80418000       0.65185000
    11  O          0.83815000       0.69582000       0.15185000
    12  O          0.66185000       0.19582000       0.34815000
    13  O          0.10415000       0.56808000       0.89974000
    14  O          0.39585000       0.06808000       0.60026000
    15  O          0.89585000       0.43192000       0.10026000
    16  O          0.60415000       0.93192000       0.39974000
    17  N          0.11065000       0.76269000       0.70565000
    18  N          0.38935000       0.26269000       0.79435000
    19  N          0.88935000       0.23731000       0.29435000
    20  N          0.61065000       0.73731000       0.20565000
    21  N          0.13085000       0.47639000       0.82735000
    22  N          0.36915000       0.97639000       0.67265000
    23  N          0.86915000       0.52361000       0.17265000
    24  N          0.63085000       0.02361000       0.32735000
    25  C          0.12405000       0.55911000       0.71756000
    26  C          0.37595000       0.05911000       0.78244000
    27  C          0.87595000       0.44089000       0.28244000
    28  C          0.62405000       0.94089000       0.21756000
    29  C          0.12786000       0.44051100       0.61976000
    30  C          0.37214000       0.94051100       0.88024000
    31  C          0.87214000       0.55948900       0.38024000
    32  C          0.62786000       0.05948900       0.11976000
    33  N          0.13255000       0.51739000       0.52215000
    34  N          0.36745000       0.01739000       0.97785000
    35  N          0.86745000       0.48261000       0.47785000
    36  N          0.63255000      -0.01739000       0.02215000
    37  H          0.13400000       0.44200000       0.46400000
    38  H          0.36600000       0.94200000       0.03600000
    39  H          0.86600000       0.55800000       0.53600000
    40  H          0.63400000       0.05800000       0.96400000
    41  H          0.13400000       0.64400000       0.51500000
    42  H          0.36600000       0.14400000       0.98500000
    43  H          0.86600000       0.35600000       0.48500000
    44  H          0.63400000       0.85600000       0.01500000
    45  N          0.12535000       0.24899000       0.62566000
    46  N          0.37465000       0.74899000       0.87434000
    47  N          0.87465000       0.75101000       0.37434000
    48  N          0.62535000       0.25101000       0.12566000
    49  H          0.12700000       0.17800000       0.56500000
    50  H          0.37300000       0.67800000       0.93500000
    51  H          0.87300000       0.82200000       0.43500000
    52  H          0.62700000       0.32200000       0.06500000
    53  H          0.12200000       0.19200000       0.69000000
    54  H          0.37800000       0.69200000       0.81000000
    55  H          0.87800000       0.80800000       0.31000000
    56  H          0.62200000       0.30800000       0.19000000
    57  O          0.58155000       0.77838000       0.79555000
    58  O          0.91845000       0.27838000       0.70445000
    59  O          0.41845000       0.22162000       0.20445000
    60  O          0.08155000       0.72162000       0.29555000
    61  O          0.63276000       0.80448000       0.64685000
    62  O          0.86724000       0.30448000       0.85315000
    63  O          0.36724000       0.19552000       0.35315000
    64  O          0.13276000       0.69552000       0.14685000
    65  O          0.61945000       0.22008000       0.81515000
    66  O          0.88055000       0.72008000       0.68485000
    67  O          0.38055000       0.77992000       0.18485000
    68  O          0.11945000       0.27992000       0.31515000
    69  O          0.65935000       0.48168000       0.91975000
    70  O          0.84065000      -0.01832000       0.58025000
    71  O          0.34065000       0.51832000       0.08025000
    72  O          0.15935000       0.01832000       0.41975000
    73  N          0.61235000       0.70559000       0.72205000
    74  N          0.88765000       0.20559000       0.77795000
    75  N          0.38765000       0.29441000       0.27795000
    76  N          0.11235000       0.79441000       0.22205000
    77  N          0.63365000       0.40069000       0.82235000
    78  N          0.86635000       0.90069000       0.67765000
    79  N          0.36635000       0.59931000       0.17765000
    80  N          0.13365000       0.09931000       0.32235000
    81  C          0.62726000       0.49871000       0.71936000
    82  C          0.87274000      -0.00129000       0.78064000
    83  C          0.37274000       0.50129000       0.28064000
    84  C          0.12726000       0.00129000       0.21936000
    85  C          0.63116000       0.40091000       0.61446000
    86  C          0.86884000       0.90091000       0.88554000
    87  C          0.36884000       0.59909000       0.38554000
    88  C          0.13116000       0.09909000       0.11446000
    89  N          0.63575000       0.50119000       0.52255000
    90  N          0.86425000       0.00119000       0.97745000
    91  N          0.36425000       0.49881000       0.47745000
    92  N          0.13575000      -0.00119000       0.02255000
    93  H          0.63800000       0.44000000       0.45900000
    94  H          0.86200000       0.94000000       0.04100000
    95  H          0.36200000       0.56000000       0.54100000
    96  H          0.13800000       0.06000000       0.95900000
    97  H          0.63700000       0.62900000       0.52500000
    98  H          0.86300000       0.12900000       0.97500000
    99  H          0.36300000       0.37100000       0.47500000
   100  H          0.13700000       0.87100000       0.02500000
   101  N          0.62966000       0.21098000       0.60726000
   102  N          0.87034000       0.71098000       0.89274000
   103  N          0.37034000       0.78902000       0.39274000
   104  N          0.12966000       0.28902000       0.10726000
   105  H          0.63200000       0.15400000       0.54300000
   106  H          0.86800000       0.65400000       0.95700000
   107  H          0.36800000       0.84600000       0.45700000
   108  H          0.13200000       0.34600000       0.04300000
   109  H          0.62700000       0.14100000       0.66700000
   110  H          0.87300000       0.64100000       0.83300000
   111  H          0.37300000       0.85900000       0.33300000
   112  H          0.12700000       0.35900000       0.16700000
