data_SEDTUQ06
_symmetry_space_group_name_H-M    'P1'
_symmetry_Int_Tables_number       1
loop_
_symmetry_equiv_pos_site_id
_symmetry_equiv_pos_as_xyz
1 x,y,z
_cell_length_a                   6.97387
_cell_length_b                   6.63501
_cell_length_c                   11.647516
_cell_angle_alpha                90.0
_cell_angle_beta                 90.0
_cell_angle_gamma                90.0
loop_
_atom_site_label
_atom_site_type_symbol
_atom_site_fract_x
_atom_site_fract_y
_atom_site_fract_z
     1  O          0.80842000       0.31793000       0.71229130
     2  O          0.69158000       0.68207000       0.21229130
     3  O          0.30842000       0.18207000       0.28770870
     4  O          0.19158000       0.81793000       0.78770870
     5  O          0.82852000       0.50643000       0.56336140
     6  O          0.67148000       0.49357000       0.06336140
     7  O          0.32852000      -0.00643000       0.43663860
     8  O          0.17148000       0.00643000       0.93663860
     9  O          0.26092000       0.36283000       0.73342120
    10  O          0.23908000       0.63717000       0.23342120
    11  O          0.76092000       0.13717000       0.26657880
    12  O          0.73908000       0.86283000       0.76657880
    13  O          0.51762000       0.42353000       0.82820100
    14  O         -0.01762000       0.57647000       0.32820100
    15  O          0.01762000       0.07647000       0.17179900
    16  O          0.48238000       0.92353000       0.67179900
    17  N          0.73332000       0.42063000       0.63770110
    18  N          0.76668000       0.57937000       0.13770110
    19  N          0.23332000       0.07937000       0.36229890
    20  N          0.26668000       0.92063000       0.86229890
    21  N          0.43422000       0.40492000       0.73534120
    22  N          0.06578000       0.59508000       0.23534120
    23  N          0.93422000       0.09508000       0.26465880
    24  N          0.56578000       0.90492000       0.76465880
    25  N          0.52773000       0.53323000       0.43372140
    26  N          0.97227000       0.46677000       0.93372140
    27  N          0.02773000       0.96677000       0.56627860
    28  N          0.47227000       0.03323000       0.06627860
    29  H          0.47940000       0.55940000       0.37430000
    30  H          0.02060000       0.44060000       0.87430000
    31  H          0.97940000       0.94060000       0.62570000
    32  H          0.52060000       0.05940000       0.12570000
    33  H          0.64240000       0.54830000       0.43791800
    34  H          0.85760000       0.45170000       0.93791800
    35  H          0.14240000       0.95170000       0.56208200
    36  H          0.35760000       0.04830000       0.06208200
    37  N          0.24543000       0.48923000       0.52365180
    38  N          0.25457000       0.51077000       0.02365180
    39  N          0.74543000       0.01077000       0.47634820
    40  N          0.75457000      -0.01077000       0.97634820
    41  H          0.19340000       0.52740000       0.46720000
    42  H          0.30660000       0.47260000       0.96720000
    43  H          0.69340000       0.97260000       0.53280000
    44  H          0.80660000       0.02740000       0.03280000
    45  H          0.18040000       0.45940000       0.58430000
    46  H          0.31960000       0.54060000       0.08430000
    47  H          0.68040000       0.04060000       0.41570000
    48  H          0.81960000       0.95940000       0.91570000
    49  C          0.53263000       0.43693000       0.63252120
    50  C          0.96737000       0.56307000       0.13252120
    51  C          0.03263000       0.06307000       0.36747880
    52  C          0.46737000       0.93693000       0.86747880
    53  C          0.43292000       0.48813000       0.52753140
    54  C          0.06708000       0.51187000       0.02753140
    55  C          0.93292000       0.01187000       0.47246860
    56  C          0.56708000      -0.01187000       0.97246860
