data_SEDTUQ33
_symmetry_space_group_name_H-M    'P1'
_symmetry_Int_Tables_number       1
loop_
_symmetry_equiv_pos_site_id
_symmetry_equiv_pos_as_xyz
1 x,y,z
_cell_length_a                   6.074511
_cell_length_b                   6.69247
_cell_length_c                   6.69727
_cell_angle_alpha                119.5053
_cell_angle_beta                 93.9137
_cell_angle_gamma                110.0427
loop_
_atom_site_label
_atom_site_type_symbol
_atom_site_fract_x
_atom_site_fract_y
_atom_site_fract_z
     1  O          0.21604000       0.19803000       0.17302000
     2  O          0.22505000       0.32803000       0.54102000
     3  O          0.23604000       0.45802000       0.02041900
     4  O          0.24106000       0.82104000       0.25603000
     5  N          0.23206000       0.36004000       0.36903000
     6  N          0.24706000       0.62204000       0.22803000
     7  N          0.21708000      -0.02696000       0.67903000
     8  N          0.23106000       0.73704000       0.81303000
     9  C          0.23808000       0.57605000       0.41604000
    10  C          0.23011000       0.77206000       0.64105000
    11  H          0.20750000       0.10997000       0.84180000
    12  H          0.21560000       0.00730000       0.54670000
    13  H          0.22160000       0.86810000       0.97310000
    14  H          0.24190000       0.57840000       0.78960000
    15  O          0.74307000       0.89004000       0.15103000
    16  O          0.76406000       0.77804000       0.78603000
    17  O          0.72408000       0.60005000       0.29904000
    18  O          0.69406000       0.21803000       0.03903000
    19  N          0.74011000       0.71106000       0.93705000
    20  N          0.72608000       0.44405000       0.07804000
    21  N          0.75305000       0.07403000       0.63102000
    22  N          0.70106000       0.29803000       0.48003000
    23  C          0.73108000       0.46604000       0.89303000
    24  C          0.72408000       0.28205000       0.66304000
    25  H          0.75530000       0.94190000       0.46710000
    26  H          0.77240000       0.05230000       0.77030000
    27  H          0.70430000       0.16060000       0.31970000
    28  H          0.67890000       0.44900000       0.49410000
