data_SEDZOQ05
_symmetry_space_group_name_H-M    'P1'
_symmetry_Int_Tables_number       1
loop_
_symmetry_equiv_pos_site_id
_symmetry_equiv_pos_as_xyz
1 x,y,z
_cell_length_a                   13.8003
_cell_length_b                   15.5003
_cell_length_c                   15.5003
_cell_angle_alpha                63.503
_cell_angle_beta                 85.803
_cell_angle_gamma                85.603
loop_
_atom_site_label
_atom_site_type_symbol
_atom_site_fract_x
_atom_site_fract_y
_atom_site_fract_z
     1  S          0.21384000       0.51934000       0.93863000
     2  S          0.78616000       0.48066000       0.06137000
     3  S          0.56483000       0.19383000       0.01893000
     4  S          0.43517000       0.80617000       0.98107000
     5  O          0.37656000       0.44897000       0.03755000
     6  O          0.62344000       0.55103000       0.96245000
     7  O          0.50037000       0.36517000       0.16095000
     8  O          0.49963000       0.63483000       0.83905000
     9  H          0.45930000       0.41020000       0.13261500
    10  H          0.54070000       0.58980000       0.86738500
    11  O          0.61757000       0.16477000       0.95505000
    12  O          0.38243000       0.83523000       0.04495000
    13  O          0.48117000       0.14227000       0.06786000
    14  O          0.51883000       0.85773000       0.93214000
    15  N          0.27397000       0.51707000       0.78236000
    16  N          0.72603000       0.48293000       0.21764000
    17  N          0.36817000       0.42147000       0.91025000
    18  N          0.63183000       0.57853000       0.08975000
    19  H          0.39237000       0.38707000       0.88065000
    20  H          0.60763000       0.61293000       0.11935000
    21  N          0.53136000       0.30666000       0.96025000
    22  N          0.46864000       0.69334000       0.03975000
    23  C          0.05698000       0.63539000       0.84067000
    24  C          0.94302000       0.36461000       0.15933000
    25  H          0.00731000       0.58998000       0.87920000
    26  H         -0.00731000       0.41002000       0.12080000
    27  H          0.06659000       0.67920000       0.86930000
    28  H          0.93341000       0.32080000       0.13070000
    29  H          0.03561800       0.67330000       0.77457000
    30  H          0.96438200       0.32670000       0.22543000
    31  C          0.14777000       0.58237000       0.83916000
    32  C          0.85223000       0.41763000       0.16084000
    33  C          0.18937000       0.56997000       0.76466000
    34  C          0.81063000       0.43003000       0.23534000
    35  H          0.16117000       0.59667000       0.70336000
    36  H          0.83883000       0.40333000       0.29664000
    37  C          0.29197000       0.48267000       0.87226000
    38  C          0.70803000       0.51733000       0.12774000
    39  C          0.41057000       0.40917000      -0.00874000
    40  C          0.58943000       0.59083000       0.00874000
    41  C          0.49327000       0.34497000       0.02136000
    42  C          0.50673000       0.65503000       0.97864000
    43  C          0.53088000       0.32657000       0.10576000
    44  C          0.46912000       0.67343000       0.89424000
    45  C          0.61487000       0.25917000       0.14206000
    46  C          0.38513000       0.74083000       0.85794000
    47  C          0.66888000       0.25708000       0.21237000
    48  C          0.33112000       0.74292000       0.78763000
    49  H          0.65258000       0.29998000       0.24047000
    50  H          0.34742000       0.70002000       0.75953000
    51  C          0.74858000       0.19177000       0.24336000
    52  C          0.25142000       0.80823000       0.75664000
    53  H          0.78348000       0.18637000       0.29636000
    54  H          0.21652000       0.81363000       0.70364000
    55  C          0.77518000       0.13869000       0.20047000
    56  C          0.22482000       0.86131000       0.79953000
    57  H          0.83298000       0.09859000       0.21867000
    58  H          0.16702000       0.90141000       0.78133000
    59  C          0.72107000       0.13907000       0.12816000
    60  C          0.27893000       0.86093000       0.87184000
    61  H          0.74127000       0.09837000       0.09826000
    62  H          0.25873000       0.90163000       0.90174000
    63  C          0.64107000       0.19637000       0.10066000
    64  C          0.35893000       0.80363000       0.89934000
    65  C          0.59868000       0.36707000       0.88687000
    66  C          0.40132000       0.63293000       0.11313000
    67  H          0.65441500       0.37620000       0.91726000
    68  H          0.34558500       0.62380000       0.08274000
    69  H          0.62120000       0.33651500       0.84511600
    70  H          0.37880000       0.66348500       0.15488400
    71  H          0.56631100       0.43001200       0.84821800
    72  H          0.43368900       0.56998800       0.15178200
    73  S          0.36774000       0.27224000       0.66103000
    74  S          0.63226000       0.72776000       0.33897000
    75  S          0.30644000       0.74234000       0.52483000
    76  S          0.69356000       0.25766000       0.47517000
    77  O          0.37116000       0.44747000       0.50556000
    78  O          0.62884000       0.55253000       0.49444000
    79  O          0.35847000       0.60718000       0.35086000
    80  O          0.64153000       0.39282000       0.64914000
    81  H          0.37440000       0.54801100       0.38011300
    82  H          0.62560000       0.45198900       0.61988700
    83  O          0.33428000       0.79428000       0.57536000
    84  O          0.66572000       0.20572000       0.42464000
    85  O          0.21007000       0.71687000       0.52955000
    86  O          0.78993000       0.28313000       0.47045000
    87  N          0.38347000       0.31747000       0.79615000
    88  N          0.61653000       0.68253000       0.20385000
    89  N          0.36937000       0.45367000       0.64765000
    90  N          0.63063000       0.54633000       0.35235000
    91  H          0.36797000       0.49147000       0.67655000
    92  H          0.63203000       0.50853000       0.32345000
    93  N          0.37316000       0.64686000       0.55985000
    94  N          0.62684000       0.35314000       0.44015000
    95  C          0.36549000       0.07868000       0.79848000
    96  C          0.63451000       0.92132000       0.20152000
    97  H          0.29891200       0.06841000       0.78830000
    98  H          0.70108800       0.93159000       0.21170000
    99  H          0.41120000       0.06291100       0.75520000
   100  H          0.58880000       0.93708900       0.24480000
   101  H          0.38130000       0.03698000       0.86561100
   102  H          0.61870000       0.96302000       0.13438900
   103  C          0.37348000       0.18098000       0.77767000
   104  C          0.62652000       0.81902000       0.22233000
   105  C          0.38457000       0.22377000       0.83577000
   106  C          0.61543000       0.77623000       0.16423000
   107  H          0.39277000       0.18657000       0.90297000
   108  H          0.60723000       0.81343000       0.09703000
   109  C          0.37447000       0.35437000       0.70356000
   110  C          0.62553000       0.64563000       0.29644000
   111  C          0.36647000       0.49297000       0.55336000
   112  C          0.63353000       0.50703000       0.44664000
   113  C          0.36707000       0.59578000       0.50576000
   114  C          0.63293000       0.40422000       0.49424000
   115  C          0.36247000       0.64597000       0.40735000
   116  C          0.63753000       0.35403000       0.59265000
   117  C          0.36417000       0.75207000       0.35576000
   118  C          0.63583000       0.24793000       0.64424000
   119  C          0.38237000       0.80047000       0.26006000
   120  C          0.61763000       0.19953000       0.73994000
   121  H          0.38967000       0.76497000       0.22316000
   122  H          0.61033000       0.23503000       0.77684000
   123  C          0.39069000       0.89559000       0.21458000
   124  C          0.60931000       0.10441000       0.78542000
   125  H          0.40539000       0.92709000       0.14718000
   126  H          0.59461000       0.07291000       0.85282000
   127  C          0.37739000       0.94659000       0.26717000
   128  C          0.62261000       0.05341000       0.73283000
   129  H          0.38389000       0.01449000       0.23587000
   130  H          0.61611000       0.98551000       0.76413000
   131  C          0.35487000       0.90187000       0.36486000
   132  C          0.64513000       0.09813000       0.63514000
   133  H          0.34667000       0.93767000       0.40136000
   134  H          0.65333000       0.06233000       0.59864000
   135  C          0.34478000       0.80458000       0.40756000
   136  C          0.65522000       0.19542000       0.59244000
   137  C          0.46618000       0.64718000       0.58907000
   138  C          0.53382000       0.35282000       0.41093000
   139  H          0.50551000       0.69101900       0.53389000
   140  H          0.49449000       0.30898100       0.46611000
   141  H          0.46188000       0.66920000       0.63971800
   142  H          0.53812000       0.33080000       0.36028200
   143  H          0.49651100       0.58179000       0.61420000
   144  H          0.50348900       0.41821000       0.38580000
   145  S          0.13244000       0.33904000       0.72713000
   146  S          0.86756000       0.66096000       0.27287000
   147  S          0.19194000       0.47433000       0.25713000
   148  S          0.80806000       0.52567000       0.74287000
   149  O          0.12698000       0.49248000       0.55436000
   150  O          0.87302000       0.50752000       0.44564000
   151  O          0.14397000       0.65077000       0.39526000
   152  O          0.85603000       0.34923000       0.60474000
   153  H          0.14140000       0.61769000       0.45546000
   154  H          0.85860000       0.38231000       0.54454000
   155  O          0.29036000       0.46896000       0.28085000
   156  O          0.70964000       0.53104000       0.71915000
   157  O          0.16837000       0.42647000       0.20566000
   158  O          0.83163000       0.57353000       0.79434000
   159  N          0.11547000       0.20396000       0.68165000
   160  N          0.88453000       0.79604000       0.31835000
   161  N          0.13147000       0.35357000       0.54685000
   162  N          0.86853000       0.64643000       0.45315000
   163  H          0.13657000       0.32437000       0.50915000
   164  H          0.86343000       0.67563000       0.49085000
   165  N          0.12897000       0.44017000       0.35316000
   166  N          0.87103000       0.55983000       0.64684000
   167  C          0.12661000       0.19681000       0.91797000
   168  C          0.87339000       0.80319000       0.08203000
   169  H          0.17330000       0.23430000       0.93058000
   170  H          0.82670000       0.76570000       0.06942000
   171  H          0.06131200       0.21040000       0.94021000
   172  H          0.93868800       0.78960000       0.05979000
   173  H          0.14440000       0.12781100       0.95248000
   174  H          0.85560000       0.87218900       0.04752000
   175  C          0.12748000       0.22458000       0.81756000
   176  C          0.87252000       0.77542000       0.18244000
   177  C          0.11688000       0.16558000       0.77856000
   178  C          0.88312000       0.83442000       0.22144000
   179  H          0.11038000       0.09838000       0.81756000
   180  H          0.88962000       0.90162000       0.18244000
   181  C          0.12498000       0.29537000       0.64636000
   182  C          0.87502000       0.70463000       0.35364000
   183  C          0.13048000       0.44798000       0.50497000
   184  C          0.86952000       0.55202000       0.49503000
   185  C          0.13618000       0.49678000       0.40286000
   186  C          0.86382000       0.50322000       0.59714000
   187  C          0.13918000       0.59198000       0.35187000
   188  C          0.86082000       0.40802000       0.64813000
   189  C          0.13977000       0.64427000       0.24976000
   190  C          0.86023000       0.35573000       0.75024000
   191  C          0.11598000       0.73997000       0.20077000
   192  C          0.88402000       0.26003000       0.79923000
   193  H          0.10218000       0.77657000       0.23597000
   194  H          0.89782000       0.22343000       0.76403000
   195  C          0.11118000       0.78488000       0.10417000
   196  C          0.88882000       0.21512000       0.89583000
   197  H          0.10098000       0.85308000       0.07187000
   198  H          0.89902000       0.14692000       0.92813000
   199  C          0.12079000       0.73258000       0.05237000
   200  C          0.87921000       0.26742000       0.94763000
   201  H          0.11149000       0.76328000       0.98483000
   202  H          0.88851000       0.23672000       0.01517000
   203  C          0.14358000       0.63788000       0.09746000
   204  C          0.85642000       0.36212000       0.90254000
   205  H          0.15038000       0.60148000       0.06156000
   206  H          0.84962000       0.39852000       0.93844000
   207  C          0.15757000       0.59177000       0.19656000
   208  C          0.84243000       0.40823000       0.80344000
   209  C          0.03068000       0.40788000       0.35046000
   210  C          0.96932000       0.59212000       0.64954000
   211  H          0.98888900       0.46388000       0.31120000
   212  H          0.01111100       0.53612000       0.68880000
   213  H          0.03659000       0.36191800       0.32220000
   214  H          0.96341000       0.63808200       0.67780000
   215  H          0.00181300       0.37620000       0.41617000
   216  H         -0.00181300       0.62380000       0.58383000
   217  S          0.28644000       0.06284000       0.47993000
   218  S          0.71356000       0.93716000       0.52007000
   219  S          0.93507000       0.98237000       0.80553000
   220  S          0.06493000       0.01763000       0.19447000
   221  O          0.12297000       0.96203000       0.54885000
   222  O          0.87703000       0.03797000       0.45115000
   223  O         -0.00198000       0.84023000       0.63666000
   224  O          0.00198000       0.15977000       0.36334000
   225  H          0.04430000       0.86780000       0.59730000
   226  H          0.95570000       0.13220000       0.40270000
   227  O          0.01696000       0.93214000       0.85755000
   228  O          0.98304000       0.06786000       0.14245000
   229  O          0.88264000       0.04386000       0.83445000
   230  O          0.11736000       0.95614000       0.16555000
   231  N          0.22807000       0.21767000       0.48396000
   232  N          0.77193000       0.78233000       0.51604000
   233  N          0.12867000       0.08958000       0.57426000
   234  N          0.87133000       0.91042000       0.42574000
   235  H          0.10007000       0.12328000       0.60286000
   236  H          0.89993000       0.87672000       0.39714000
   237  N          0.96693000       0.04116000       0.69175000
   238  N          0.03307000       0.95884000       0.30825000
   239  C          0.44228000       0.15459000       0.36248000
   240  C          0.55772000       0.84541000       0.63752000
   241  H          0.46720000       0.21921100       0.32530000
   242  H          0.53280000       0.78078900       0.67470000
   243  H          0.49171400       0.11330000       0.40688000
   244  H          0.50828600       0.88670000       0.59312000
   245  H          0.42781100       0.12730000       0.31920000
   246  H          0.57218900       0.87270000       0.68080000
   247  C          0.35248000       0.16078000       0.41837000
   248  C          0.64752000       0.83922000       0.58163000
   249  C          0.31008000       0.23738000       0.43026000
   250  C          0.68992000       0.76262000       0.56974000
   251  H          0.33688000       0.29918000       0.40256000
   252  H          0.66312000       0.70082000       0.59744000
   253  C          0.20778000       0.12398000       0.51777000
   254  C          0.79222000       0.87602000       0.48223000
   255  C          0.09167000       0.01027000       0.58956000
   256  C          0.90833000       0.98973000       0.41044000
   257  C          0.00908000       0.97793000       0.65426000
   258  C          0.99092000       0.02207000       0.34574000
   259  C          0.96313000       0.89283000       0.67466000
   260  C          0.03687000       0.10717000       0.32534000
   261  C          0.88353000       0.86083000       0.73976000
   262  C          0.11647000       0.13917000       0.26024000
   263  C          0.83313000       0.78793000       0.74386000
   264  C          0.16687000       0.21207000       0.25614000
   265  H          0.85413000       0.75713000       0.70426000
   266  H          0.14587000       0.24287000       0.29574000
   267  C          0.75152000       0.75702000       0.80436000
   268  C          0.24848000       0.24298000       0.19564000
   269  H          0.71432000       0.70802000       0.80436000
   270  H          0.28568000       0.29198000       0.19564000
   271  C          0.72541000       0.79931000       0.86497000
   272  C          0.27459000       0.20069000       0.13503000
   273  H          0.67061000       0.77771000       0.90847000
   274  H          0.32939000       0.22229000       0.09153000
   275  C          0.77672000       0.87122000       0.86316000
   276  C          0.22328000       0.12878000       0.13684000
   277  H          0.75622000       0.90172000       0.90326000
   278  H          0.24378000       0.09828000       0.09674000
   279  C          0.86003000       0.90053000       0.80216000
   280  C          0.13997000       0.09947000       0.19784000
   281  C          0.90582000       0.11487000       0.63146000
   282  C          0.09418000       0.88513000       0.36854000
   283  H          0.84868500       0.08757000       0.62120000
   284  H          0.15131500       0.91243000       0.37880000
   285  H          0.88480000       0.15771500       0.66101400
   286  H          0.11520000       0.84228500       0.33898600
   287  H          0.94038800       0.15151800       0.56941200
   288  H          0.05961200       0.84848200       0.43058800
