data_SEDZOQ
_symmetry_space_group_name_H-M    'P1'
_symmetry_Int_Tables_number       1
loop_
_symmetry_equiv_pos_site_id
_symmetry_equiv_pos_as_xyz
1 x,y,z
_cell_length_a                   6.9961
_cell_length_b                   8.1061
_cell_length_c                   13.6021
_cell_angle_alpha                85.681
_cell_angle_beta                 88.361
_cell_angle_gamma                74.881
loop_
_atom_site_label
_atom_site_type_symbol
_atom_site_fract_x
_atom_site_fract_y
_atom_site_fract_z
     1  S          0.28873800       0.71421700       0.57844400
     2  S          0.71126200       0.28578300       0.42155600
     3  S          0.70676100       0.06949800       0.91032400
     4  S          0.29323900       0.93050200       0.08967600
     5  O          0.34403000       0.72773000       0.88722120
     6  O          0.65597000       0.27227000       0.11277880
     7  O          0.53843000       0.41142000       0.88788110
     8  O          0.46157000       0.58858000       0.11211890
     9  N          0.61853000       0.28682000       0.74347140
    10  N          0.38147000       0.71318000       0.25652860
    11  N          0.48513000       0.59662000       0.63603120
    12  N          0.51487000       0.40338000       0.36396880
    13  O          0.12852000       0.63882000       0.60240130
    14  O          0.87148000       0.36118000       0.39759870
    15  O          0.34063000       0.74002000       0.47738110
    16  O          0.65937000       0.25998000       0.52261890
    17  C          0.45983000       0.58773000       0.74156150
    18  C          0.54017000       0.41227000       0.25843850
    19  C          0.54033000       0.42433000       0.79602000
    20  C          0.45967000       0.57567000       0.20398000
    21  C          0.28153000       0.89513000       0.73702000
    22  C          0.71847000       0.10487000       0.26298000
    23  N          0.76293000      -0.00442000       0.72922140
    24  N          0.23707000       0.00442000       0.27077860
    25  C          0.69603000       0.12123000       0.78472000
    26  C          0.30397000       0.87877000       0.21528000
    27  C          0.24753000       0.90723000       0.63542000
    28  C          0.75247000       0.09277000       0.36458000
    29  C          0.17944000       0.06323000       0.58292000
    30  C          0.82056000       0.93677000       0.41708000
    31  C          0.36623000       0.72903000       0.78931150
    32  C          0.63377000       0.27097000       0.21068850
    33  C          0.16434000       0.20093000       0.73362000
    34  C          0.83566000       0.79907000       0.26638000
    35  C          0.67564000       0.62944000       0.60112000
    36  C          0.32436000       0.37056000       0.39888000
    37  C          0.81034000       0.85897000       0.88622000
    38  C          0.18966000       0.14103000       0.11378000
    39  C          0.82934000       0.84677000       0.78842000
    40  C          0.17066000       0.15323000       0.21158000
    41  C          0.13764000       0.21103000       0.63282000
    42  C          0.86236000       0.78897000       0.36718000
    43  C          0.23624000       0.04513000       0.78582000
    44  C          0.76376000       0.95487000       0.21418000
    45  C          0.86746000       0.72016000       0.96642000
    46  C          0.13254000       0.27984000       0.03358000
    47  H          0.68233900       0.74583700       0.61362000
    48  H          0.31766100       0.25416300       0.38638000
    49  H          0.68844200       0.61883700       0.53182300
    50  H          0.31155800       0.38116300       0.46817700
    51  H          0.25424300       0.03753700       0.85252300
    52  H          0.74575700       0.96246300       0.14747700
    53  H          0.61074000       0.29263500       0.68492100
    54  H          0.38926000       0.70736500       0.31507900
    55  H          0.08474200       0.32354000       0.59472100
    56  H          0.91525800       0.67646000       0.40527900
    57  H          0.16153800       0.06223400       0.51572000
    58  H          0.83846200       0.93776600       0.48428000
    59  H          0.88244300       0.73816100       0.75872100
    60  H          0.11755700       0.26183900       0.24127900
    61  H          0.13734200       0.30463800       0.76812100
    62  H          0.86265800       0.69536200       0.23187900
    63  H          0.76215300       0.71395700       0.00862700
    64  H          0.23784700       0.28604300      -0.00862700
    65  H          0.92425100       0.61915200       0.93652600
    66  H          0.07574900       0.38084800       0.06347400
    67  H          0.77764900       0.54824200       0.63812400
    68  H          0.22235100       0.45175800       0.36187600
    69  H          0.96716200       0.73544800       0.00643100
    70  H          0.03283800       0.26455200      -0.00643100
    71  H          0.40755500       0.62154900       0.91212700
    72  H          0.59244500       0.37845100       0.08787300
