data_SEDZOQ04
_symmetry_space_group_name_H-M    'P1'
_symmetry_Int_Tables_number       1
loop_
_symmetry_equiv_pos_site_id
_symmetry_equiv_pos_as_xyz
1 x,y,z
_cell_length_a                   11.24392
_cell_length_b                   11.27722
_cell_length_c                   13.40272
_cell_angle_alpha                65.9012
_cell_angle_beta                 87.25401
_cell_angle_gamma                79.43901
loop_
_atom_site_label
_atom_site_type_symbol
_atom_site_fract_x
_atom_site_fract_y
_atom_site_fract_z
     1  S          0.60134400       0.78021500       0.46123400
     2  S          0.39865600       0.21978500       0.53876600
     3  S          0.07681400       0.51838500       0.23955400
     4  S          0.92318600       0.48161500       0.76044600
     5  O          0.60785120       0.88536140       0.35622110
     6  O          0.39214880       0.11463860       0.64377890
     7  O          0.48784120       0.73932150       0.49691130
     8  O          0.51215880       0.26067850       0.50308870
     9  O          0.01271120       0.62537140       0.37982120
    10  O          0.98728880       0.37462860       0.62017880
    11  O          0.97946120       0.76693150       0.48841130
    12  O          0.02053880       0.23306850       0.51158870
    13  H          0.01848900       0.72739300       0.45254000
    14  H          0.98151100       0.27260700       0.54746000
    15  N          0.69971140       0.65217160       0.46254130
    16  N          0.30028860       0.34782840       0.53745870
    17  N          0.85508140       0.56019160       0.32922140
    18  N          0.14491860       0.43980840       0.67077860
    19  H          0.77782700       0.55457800       0.33543600
    20  H          0.22217300       0.44542200       0.66456400
    21  N          0.87794140       0.45180160       0.21069140
    22  N          0.12205860       0.54819840       0.78930860
    23  C          0.66346170       0.82106190       0.55856160
    24  C          0.33653830       0.17893810       0.44143840
    25  C          0.59003180       0.87562000       0.62042170
    26  C          0.40996820       0.12438000       0.37957830
    27  H          0.50464800       0.88290500       0.61723200
    28  H          0.49535200       0.11709500       0.38276800
    29  C          0.64327190       0.91972000       0.68744170
    30  C          0.35672810       0.08028000       0.31255830
    31  H          0.59417000       0.95808100       0.73007200
    32  H          0.40583000       0.04191900       0.26992800
    33  C          0.76848190       0.90752000       0.69188180
    34  C          0.23151810       0.09248000       0.30811820
    35  H          0.80442000       0.93827100       0.73733600
    36  H          0.19558000       0.06172900       0.26266400
    37  C          0.84138180       0.85102000       0.63080180
    38  C          0.15861820       0.14898000       0.36919820
    39  H          0.92680100       0.84253100       0.63525700
    40  H          0.07319900       0.15746900       0.36474300
    41  C          0.79005170       0.80625190       0.56261160
    42  C          0.20994830       0.19374810       0.43738840
    43  C          0.86504170       0.74582000       0.49771160
    44  C          0.13495830       0.25418000       0.50228840
    45  C          0.82260170       0.67477190       0.44974160
    46  C          0.17739830       0.32522810       0.55025840
    47  C          0.68262190       0.52022000       0.54464180
    48  C          0.31737810       0.47978000       0.45535820
    49  H          0.70115400       0.51232800       0.61803500
    50  H          0.29884600       0.48767200       0.38196500
    51  H          0.73691200       0.45128900       0.52955900
    52  H          0.26308800       0.54871100       0.47044100
    53  H          0.59852400       0.51007200       0.54044500
    54  H          0.40147600       0.48992800       0.45955500
    55  C          0.90220180       0.61950190       0.38458160
    56  C          0.09779820       0.38049810       0.61541840
    57  C          0.92491170       0.50811190       0.26314160
    58  C          0.07508830       0.49188810       0.73685840
    59  C          0.96480170       0.41564190       0.14632160
    60  C          0.03519830       0.58435810       0.85367840
    61  H          0.94664300       0.37425900       0.10119900
    62  H          0.05335700       0.62574100       0.89880100
    63  C          0.07644170       0.44204190       0.15081160
    64  C          0.92355830       0.55795810       0.84918840
    65  C          0.18810180       0.41052000       0.09433180
    66  C          0.81189820       0.58948000       0.90566820
    67  H          0.21443000       0.49269000       0.04561900
    68  H          0.78557000       0.50731000       0.95438100
    69  H          0.17051000       0.36287200       0.05145300
    70  H          0.82949000       0.63712800       0.94854700
    71  H          0.25246500       0.35540300       0.14895800
    72  H          0.74753500       0.64459700       0.85104200
    73  S          0.88528400       0.13368500       0.12502400
    74  S          0.11471600       0.86631500       0.87497600
    75  S          0.40381400       0.57651500       0.15828400
    76  S          0.59618600       0.42348500       0.84171600
    77  O          0.87883130       0.23928140       0.01836120
    78  O          0.12116870       0.76071860       0.98163880
    79  O         -0.00150880       0.08179150       0.18482140
    80  O          0.00150880       0.91820850       0.81517860
    81  O          0.47539120       0.35865140       0.12403120
    82  O          0.52460880       0.64134860       0.87596880
    83  O          0.50958120       0.16338140       0.07352120
    84  O          0.49041880       0.83661860       0.92647880
    85  H          0.46976300       0.22829700       0.08324800
    86  H          0.53023700       0.77170300       0.91675200
    87  N          0.78527140       0.18454160       0.19939140
    88  N          0.21472860       0.81545840       0.80060860
    89  N          0.62709140       0.41240160       0.19335140
    90  N          0.37290860       0.58759840       0.80664860
    91  H          0.70462400       0.39541500       0.21104300
    92  H          0.29537600       0.60458500       0.78895700
    93  N          0.59581150       0.58585170       0.25139140
    94  N          0.40418850       0.41414830       0.74860860
    95  C          0.82669180       0.00596190       0.11314160
    96  C          0.17330820      -0.00596190       0.88685840
    97  C          0.90271180       0.90078000       0.10225170
    98  C          0.09728820       0.09922000       0.89774830
    99  H          0.98793000       0.89000000       0.11079300
   100  H          0.01207000       0.11000000       0.88920700
   101  C          0.85213180       0.81128810       0.07860170
   102  C          0.14786820       0.18871190       0.92139830
   103  H          0.90281700       0.74006900       0.06843700
   104  H          0.09718300       0.25993100       0.93156300
   105  C          0.72672180       0.82648000       0.06987170
   106  C          0.27327820       0.17352000       0.93012830
   107  H          0.69245400       0.76443200       0.05466200
   108  H          0.30754600       0.23556800       0.94533800
   109  C          0.65127180       0.93048000       0.08299160
   110  C          0.34872820       0.06952000       0.91700840
   111  H          0.56596800       0.93866300       0.07750900
   112  H          0.43403200       0.06133700       0.92249100
   113  C          0.70001170       0.02337190       0.10424150
   114  C          0.29998830       0.97662810       0.89575850
   115  C          0.62298170       0.13832000       0.11302160
   116  C          0.37701830       0.86168000       0.88697840
   117  C          0.66375170       0.21629190       0.15492160
   118  C          0.33624830       0.78370810       0.84507840
   119  C          0.79672000       0.10822000       0.31981170
   120  C          0.20328000       0.89178000       0.68018830
   121  H          0.77150800       0.02296700       0.33905600
   122  H          0.22849200       0.97703300       0.66094400
   123  H          0.74498300       0.15785600       0.35587700
   124  H          0.25501700       0.84214400       0.64412300
   125  H          0.88110500       0.09333900       0.34392400
   126  H          0.11889500       0.90666100       0.65607600
   127  C          0.58339170       0.33312000       0.15592160
   128  C          0.41660830       0.66688000       0.84407840
   129  C          0.55374170       0.51962000       0.20478160
   130  C          0.44625830       0.48038000       0.79521840
   131  C          0.50555180       0.68782000       0.25077160
   132  C          0.49444820       0.31218000       0.74922840
   133  H          0.51946500       0.74709300       0.28101400
   134  H          0.48053500       0.25290700       0.71898600
   135  C          0.39688180       0.69948190       0.20545160
   136  C          0.60311820       0.30051810       0.79454840
   137  C          0.28275190       0.79592000       0.19815180
   138  C          0.71724810       0.20408000       0.80184820
   139  H          0.25641200       0.84622000       0.12132100
   140  H          0.74358800       0.15378000       0.87867900
   141  H          0.29789400       0.85657200       0.22961600
   142  H          0.70210600       0.14342800       0.77038400
   143  H          0.21940000       0.74785100       0.23873500
   144  H          0.78060000       0.25214900       0.76126500
