data_SETSAN
_symmetry_space_group_name_H-M    'P1'
_symmetry_Int_Tables_number       1
loop_
_symmetry_equiv_pos_site_id
_symmetry_equiv_pos_as_xyz
1 x,y,z
_cell_length_a                   7.45733
_cell_length_b                   9.51544
_cell_length_c                   10.17373
_cell_angle_alpha                96.9043
_cell_angle_beta                 103.2642
_cell_angle_gamma                101.945718
loop_
_atom_site_label
_atom_site_type_symbol
_atom_site_fract_x
_atom_site_fract_y
_atom_site_fract_z
     1  O          0.34583160       0.20849110       0.10554100
     2  O          0.65416840       0.79150890       0.89445900
     3  O          0.22541160       0.25201110       0.28406100
     4  O          0.77458840       0.74798890       0.71593900
     5  C          0.10342000       0.95422850       0.27444140
     6  C          0.89658000       0.04577150       0.72555860
     7  C         -0.01222000       0.68839840       0.16565140
     8  C          0.01222000       0.31160160       0.83434860
     9  H          0.01620000       0.70950000       0.08480000
    10  H         -0.01620000       0.29050000       0.91520000
    11  C          0.17222000       0.00759160       0.17587140
    12  C          0.82778000      -0.00759160       0.82412860
    13  C          0.25542000       0.16413160       0.18527140
    14  C          0.74458000       0.83586840       0.81472860
    15  C         -0.02352000       0.76609840       0.39653140
    16  C          0.02352000       0.23390160       0.60346860
    17  H         -0.00170000       0.83970000       0.47140000
    18  H          0.00170000       0.16030000       0.52860000
    19  C          0.02192190       0.80123850       0.27675130
    20  C         -0.02192190       0.19876150       0.72324870
    21  C          0.86808000       0.51281830       0.29543160
    22  C          0.13192000       0.48718170       0.70456840
    23  H          0.81760000       0.41670000       0.30170000
    24  H          0.18240000       0.58330000       0.69830000
    25  C          0.89948000       0.62288830       0.40538150
    26  C          0.10052000       0.37711170       0.59461850
    27  H          0.86900000       0.60120000       0.48550000
    28  H          0.13100000       0.39880000       0.51450000
    29  C          0.91188000       0.54542840       0.17537150
    30  C          0.08812000       0.45457160       0.82462850
    31  H          0.89020000       0.47100000       0.10120000
    32  H          0.10980000       0.52900000       0.89880000
    33  H          0.11550000       0.02210000       0.36030000
    34  H          0.88450000       0.97790000       0.63970000
    35  H          0.17920000       0.93880000       0.09350000
    36  H          0.82080000       0.06120000       0.90650000
    37  H          0.28000000       0.35670000       0.28340000
    38  H          0.72000000       0.64330000       0.71660000
    39  O          0.64866170       0.06647120       0.35877100
    40  O          0.35133830       0.93352880       0.64122900
    41  N          0.74831180       0.13910130       0.13024120
    42  N          0.25168820       0.86089870       0.86975880
    43  C          0.62009190       0.96904150       0.26095130
    44  C          0.37990810       0.03095850       0.73904870
    45  N          0.37913170       0.52709130       0.29131120
    46  N          0.62086830       0.47290870       0.70868880
    47  N          0.66523170      -0.00442870       0.14408110
    48  N          0.33476830       0.00442870       0.85591890
    49  C          0.48602000       0.78215160       0.38568140
    50  C          0.51398000       0.21784840       0.61431860
    51  H          0.50530000       0.85680000       0.45920000
    52  H          0.49470000       0.14320000       0.54080000
    53  C          0.49802000       0.69725150       0.15822140
    54  C          0.50198000       0.30274850       0.84177860
    55  H          0.52520000       0.71390000       0.07580000
    56  H          0.47480000       0.28610000       0.92420000
    57  C          0.53274180       0.81279150       0.26563130
    58  C          0.46725820       0.18720850       0.73436870
    59  C          0.42282000       0.55747160       0.17542140
    60  C          0.57718000       0.44252840       0.82457860
    61  H          0.40130000       0.48080000       0.10330000
    62  H          0.59870000       0.51920000       0.89670000
    63  C          0.41022000       0.63882160       0.39388140
    64  C          0.58978000       0.36117840       0.60611860
    65  H          0.37930000       0.61920000       0.47440000
    66  H          0.62070000       0.38080000       0.52560000
    67  H          0.85180000       0.17730000       0.19630000
    68  H          0.14820000       0.82270000       0.80370000
    69  H          0.66460000       0.19940000       0.14120000
    70  H          0.33540000       0.80060000       0.85880000
    71  H          0.64350000       0.92590000       0.06430000
    72  H          0.35650000       0.07410000       0.93570000
