data_SETSAN02
_symmetry_space_group_name_H-M    'P1'
_symmetry_Int_Tables_number       1
loop_
_symmetry_equiv_pos_site_id
_symmetry_equiv_pos_as_xyz
1 x,y,z
_cell_length_a                   6.48722
_cell_length_b                   8.14784
_cell_length_c                   13.5603011
_cell_angle_alpha                95.169111
_cell_angle_beta                 101.111111
_cell_angle_gamma                98.637617
loop_
_atom_site_label
_atom_site_type_symbol
_atom_site_fract_x
_atom_site_fract_y
_atom_site_fract_z
     1  N          0.69034180       0.56375150       0.79286900
     2  N          0.30965820       0.43624850       0.20713100
     3  C          0.47742000       0.53573190       0.76533110
     4  C          0.52258000       0.46426810       0.23466890
     5  H          0.41350000       0.58960000       0.71300000
     6  H          0.58650000       0.41040000       0.28700000
     7  C          0.34812000       0.43007180       0.81138100
     8  C          0.65188000       0.56992820       0.18861900
     9  H          0.20060000       0.41470000       0.79040000
    10  H          0.79940000       0.58530000       0.20960000
    11  C          0.43942000       0.34763160       0.88859100
    12  C          0.56058000       0.65236840       0.11140900
    13  C          0.66082000       0.37391170       0.91641110
    14  C          0.33918000       0.62608830       0.08358890
    15  H          0.72880000       0.31930000       0.96720000
    16  H          0.27120000       0.68070000       0.03280000
    17  C          0.77802000       0.48296180       0.86703110
    18  C          0.22198000       0.51703820       0.13296890
    19  H          0.92580000       0.50090000       0.88660000
    20  H          0.07420000       0.49910000       0.11340000
    21  C          0.29182000       0.23682160       0.93853100
    22  C          0.70818000       0.76317840       0.06146900
    23  O          0.09778150       0.21558130       0.90755800
    24  O          0.90221850       0.78441870       0.09244200
    25  N          0.38371180       0.16741150       0.01730900
    26  N          0.61628820       0.83258850       0.98269100
    27  H          0.51930000       0.18520000       0.04331300
    28  H          0.48070000       0.81480000       0.95668700
    29  N          0.26216190       0.06591170       0.07273100
    30  N          0.73783810       0.93408830       0.92726900
    31  H          0.16330000       0.12530000       0.09151400
    32  H          0.83670000       0.87470000       0.90848600
    33  H          0.18630000       0.97380000       0.02731400
    34  H          0.81370000       0.02620000       0.97268600
    35  O          0.95518170       0.77111150       0.71545800
    36  O          0.04481830       0.22888850       0.28454200
    37  H          0.87490000       0.70730000       0.74030000
    38  H          0.12510000       0.29270000       0.25970000
    39  O          0.16107150       0.79207130       0.86998800
    40  O          0.83892850       0.20792870       0.13001200
    41  C          0.13302000       0.82833180       0.78323110
    42  C          0.86698000       0.17166820       0.21676890
    43  C          0.29942000       0.93732180       0.74799110
    44  C          0.70058000       0.06267820       0.25200890
    45  H          0.43400000       0.96580000       0.79010000
    46  H          0.56600000       0.03420000       0.20990000
    47  C          0.26812000      -0.00307820       0.65973110
    48  C          0.73188000       0.00307820       0.34026890
    49  H          0.13300000       0.96670000       0.61830000
    50  H          0.86700000       0.03330000       0.38170000
    51  C          0.42842000       0.10700180       0.62148110
    52  C          0.57158000       0.89299820       0.37851890
    53  C          0.36163000       0.18352000       0.53647120
    54  C          0.63837000       0.81648000       0.46352880
    55  H          0.21760000       0.16530000       0.50580000
    56  H          0.78240000       0.83470000       0.49420000
    57  C          0.50563000       0.28662000       0.49655130
    58  C          0.49437000       0.71338000       0.50344870
    59  H          0.45790000       0.33760000       0.43980000
    60  H          0.54210000       0.66240000       0.56020000
    61  C          0.71893000       0.31362000       0.54044140
    62  C          0.28107000       0.68638000       0.45955860
    63  H          0.81560000       0.38310000       0.51360000
    64  H          0.18440000       0.61690000       0.48640000
    65  C          0.78983000       0.23732000       0.62477130
    66  C          0.21017000       0.76268000       0.37522870
    67  H          0.93440000       0.25470000       0.65410000
    68  H          0.06560000       0.74530000       0.34590000
    69  C          0.64553000       0.13472000       0.66566120
    70  C          0.35447000       0.86528000       0.33433880
    71  H          0.69370000       0.08430000       0.72260000
    72  H          0.30630000       0.91570000       0.27740000
