data_SETSAN01
_symmetry_space_group_name_H-M    'P1'
_symmetry_Int_Tables_number       1
loop_
_symmetry_equiv_pos_site_id
_symmetry_equiv_pos_as_xyz
1 x,y,z
_cell_length_a                   14.91248
_cell_length_b                   3.74682
_cell_length_c                   24.308916
_cell_angle_alpha                90.0
_cell_angle_beta                 96.9752
_cell_angle_gamma                90.0
loop_
_atom_site_label
_atom_site_type_symbol
_atom_site_fract_x
_atom_site_fract_y
_atom_site_fract_z
     1  N          0.37412000       0.10469000       0.08171140
     2  N          0.62588000       0.60469000       0.41828860
     3  N          0.62588000       0.89531000       0.91828860
     4  N          0.37412000       0.39531000       0.58171140
     5  C          0.52953000       0.28391000       0.09028160
     6  C          0.47047000       0.78391000       0.40971840
     7  C          0.47047000       0.71609000       0.90971840
     8  C          0.52953000       0.21609000       0.59028160
     9  H          0.57830000       0.36390000       0.07320000
    10  H          0.42170000       0.86390000       0.42680000
    11  H          0.42170000       0.63610000       0.92680000
    12  H          0.57830000       0.13610000       0.57320000
    13  N          0.68962000       0.47529000       0.16380130
    14  N          0.31038000      -0.02471000       0.33619870
    15  N          0.31038000       0.52471000       0.83619870
    16  N          0.68962000       0.02471000       0.66380130
    17  O          0.63387190       0.18367000       0.23341120
    18  O          0.36612810       0.68367000       0.26658880
    19  O          0.36612810       0.81633000       0.76658880
    20  O          0.63387190       0.31633000       0.73341120
    21  C          0.53863000       0.22721000       0.14713150
    22  C          0.46137000       0.72721000       0.35286850
    23  C          0.46137000       0.77279000       0.85286850
    24  C          0.53863000       0.27279000       0.64713150
    25  C          0.62473000       0.29031100       0.18548170
    26  C          0.37527000       0.79031100       0.31451830
    27  C          0.37527000       0.70968900       0.81451830
    28  C          0.62473000       0.20968900       0.68548170
    29  C          0.44693000       0.21981100       0.05942170
    30  C          0.55307000       0.71981100       0.44057830
    31  C          0.55307000       0.78018900       0.94057830
    32  C          0.44693000       0.28018900       0.55942170
    33  H          0.44160000       0.25830000       0.02140000
    34  H          0.55840000       0.75830000       0.47860000
    35  H          0.55840000       0.74170000       0.97860000
    36  H          0.44160000       0.24170000       0.52140000
    37  C          0.46323000       0.10551100       0.17015170
    38  C          0.53677000       0.60551100       0.32984830
    39  C          0.53677000       0.89448900       0.82984830
    40  C          0.46323000       0.39448900       0.67015170
    41  H          0.46630000       0.06280000       0.20800000
    42  H          0.53370000       0.56280000       0.29200000
    43  H          0.53370000       0.93720000       0.79200000
    44  H          0.46630000       0.43720000       0.70800000
    45  N          0.76953000       0.57641100       0.19807160
    46  N          0.23047000       0.07641100       0.30192840
    47  N          0.23047000       0.42358900       0.80192840
    48  N          0.76953000       0.92358900       0.69807160
    49  H          0.75430000       0.63912000       0.23261800
    50  H          0.24570000       0.13912000       0.26738200
    51  H          0.24570000       0.36088000       0.76738200
    52  H          0.75430000       0.86088000       0.73261800
    53  H          0.80230000       0.37212000       0.20971900
    54  H          0.19770000       0.87212000       0.29028100
    55  H          0.19770000       0.62788000       0.79028100
    56  H          0.80230000       0.12788000       0.70971900
    57  C          0.38413000       0.04971100       0.13599180
    58  C          0.61587000       0.54971100       0.36400820
    59  C          0.61587000       0.95028900       0.86400820
    60  C          0.38413000       0.45028900       0.63599180
    61  H          0.33440000      -0.03200000       0.15200000
    62  H          0.66560000       0.46800000       0.34800000
    63  H          0.66560000       0.03200000       0.84800000
    64  H          0.33440000       0.53200000       0.65200000
    65  H          0.68600000       0.56750000       0.12660000
    66  H          0.31400000       0.06750000       0.37340000
    67  H          0.31400000       0.43250000       0.87340000
    68  H          0.68600000       0.93250000       0.62660000
    69  O          0.22783190      -0.02248000       0.01042110
    70  O          0.77216810       0.47752000       0.48957890
    71  O          0.77216810       0.02248000       0.98957890
    72  O          0.22783190       0.52248000       0.51042110
    73  H          0.27230000       0.04460000       0.03100000
    74  H          0.72770000       0.54460000       0.46900000
    75  H          0.72770000       0.95540000       0.96900000
    76  H          0.27230000       0.45540000       0.53100000
    77  C          0.15763000      -0.00571100       0.91868830
    78  C          0.84237000       0.49428900       0.58131170
    79  C          0.84237000       0.00571100       0.08131170
    80  C          0.15763000       0.50571100       0.41868830
    81  O          0.30435190       0.21688000       0.94599890
    82  O          0.69564810       0.71688000       0.55400110
    83  O          0.69564810       0.78312000       0.05400110
    84  O          0.30435190       0.28312000       0.44599890
    85  C          0.00163000       0.74989000       0.89463840
    86  C         -0.00163000       0.24989000       0.60536160
    87  C         -0.00163000       0.25011000       0.10536160
    88  C          0.00163000       0.75011000       0.39463840
    89  C         -0.00273000       0.75798900       0.83779830
    90  C          0.00273000       0.25798900       0.66220170
    91  C          0.00273000       0.24201100       0.16220170
    92  C         -0.00273000       0.74201100       0.33779830
    93  H          0.04760000       0.83260000       0.82170000
    94  H          0.95240000       0.33260000       0.67830000
    95  H          0.95240000       0.16740000       0.17830000
    96  H          0.04760000       0.66740000       0.32170000
    97  C          0.92427000       0.63559000       0.91703830
    98  C          0.07573000       0.13559000       0.58296170
    99  C          0.07573000       0.36441000       0.08296170
   100  C          0.92427000       0.86441000       0.41703830
   101  H          0.92520000       0.62890000       0.95530000
   102  H          0.07480000       0.12890000       0.54470000
   103  H          0.07480000       0.37110000       0.04470000
   104  H          0.92520000       0.87110000       0.45530000
   105  C          0.92017000       0.65808900       0.80400820
   106  C          0.07983000       0.15808900       0.69599180
   107  C          0.07983000       0.34191100       0.19599180
   108  C          0.92017000       0.84191100       0.30400820
   109  H          0.91870000       0.66830000       0.76570000
   110  H          0.08130000       0.16830000       0.73430000
   111  H          0.08130000       0.33170000       0.23430000
   112  H          0.91870000       0.83170000       0.26570000
   113  C          0.08233000       0.85159000       0.93211840
   114  C          0.91767000       0.35159000       0.56788160
   115  C          0.91767000       0.14841000       0.06788160
   116  C          0.08233000       0.64841000       0.43211840
   117  H          0.08000000       0.81080000       0.96970000
   118  H          0.92000000       0.31080000       0.53030000
   119  H          0.92000000       0.18920000       0.03030000
   120  H          0.08000000       0.68920000       0.46970000
   121  C          0.84467000       0.54198900       0.82764820
   122  C          0.15533000       0.04198900       0.67235180
   123  C          0.15533000       0.45801100       0.17235180
   124  C          0.84467000       0.95801100       0.32764820
   125  H          0.79300000       0.47080000       0.80510000
   126  H          0.20700000      -0.02920000       0.69490000
   127  H          0.20700000       0.52920000       0.19490000
   128  H          0.79300000       0.02920000       0.30510000
   129  C          0.84697000       0.53288900       0.88395820
   130  C          0.15303000       0.03288900       0.61604180
   131  C          0.15303000       0.46711100       0.11604180
   132  C          0.84697000      -0.03288900       0.38395820
   133  H          0.79660000       0.45770000       0.89990000
   134  H          0.20340000       0.95770000       0.60010000
   135  H          0.20340000       0.54230000       0.10010000
   136  H          0.79660000       0.04230000       0.39990000
   137  C          0.23613000       0.07241000       0.95899830
   138  C          0.76387000       0.57241000       0.54100170
   139  C          0.76387000       0.92759000       0.04100170
   140  C          0.23613000       0.42759000       0.45899830
   141  H          0.16880000       0.03160000       0.87750000
   142  H          0.83120000       0.53160000       0.62250000
   143  H          0.83120000      -0.03160000       0.12250000
   144  H          0.16880000       0.46840000       0.37750000
