data_SEYDIJ
_symmetry_space_group_name_H-M    'P1'
_symmetry_Int_Tables_number       1
loop_
_symmetry_equiv_pos_site_id
_symmetry_equiv_pos_as_xyz
1 x,y,z
_cell_length_a                   16.7212
_cell_length_b                   4.2421
_cell_length_c                   18.2932
_cell_angle_alpha                90.0
_cell_angle_beta                 90.0
_cell_angle_gamma                90.0
loop_
_atom_site_label
_atom_site_type_symbol
_atom_site_fract_x
_atom_site_fract_y
_atom_site_fract_z
     1  O          0.18751000       0.42285000       0.83971000
     2  O          0.31249000       0.57715000       0.33971000
     3  O          0.68751000       0.07715000       0.16029000
     4  O          0.81249000       0.92285000       0.66029000
     5  O          0.81249000       0.57715000       0.16029000
     6  O          0.68751000       0.42285000       0.66029000
     7  O          0.31249000       0.92285000       0.83971000
     8  O          0.18751000       0.07715000       0.33971000
     9  H          0.16320000       0.47880000       0.79620000
    10  H          0.33680000       0.52120000       0.29620000
    11  H          0.66320000       0.02120000       0.20380000
    12  H          0.83680000      -0.02120000       0.70380000
    13  H          0.83680000       0.52120000       0.20380000
    14  H          0.66320000       0.47880000       0.70380000
    15  H          0.33680000      -0.02120000       0.79620000
    16  H          0.16320000       0.02120000       0.29620000
    17  H          0.21420000       0.27790000       0.82220000
    18  H          0.28580000       0.72210000       0.32220000
    19  H          0.71420000       0.22210000       0.17780000
    20  H          0.78580000       0.77790000       0.67780000
    21  H          0.78580000       0.72210000       0.17780000
    22  H          0.71420000       0.27790000       0.67780000
    23  H          0.28580000       0.77790000       0.82220000
    24  H          0.21420000       0.22210000       0.32220000
    25  O          0.40091000       0.18043000       0.24891000
    26  O          0.09909000       0.81957000       0.74891000
    27  O          0.90091000       0.31957000       0.75109000
    28  O          0.59909000       0.68043000       0.25109000
    29  O          0.59909000       0.81957000       0.75109000
    30  O          0.90091000       0.18043000       0.25109000
    31  O          0.09909000       0.68043000       0.24891000
    32  O          0.40091000       0.31957000       0.74891000
    33  N          0.42881000       0.79407000       0.04651000
    34  N          0.07119000       0.20593000       0.54651000
    35  N          0.92881000       0.70593000       0.95349000
    36  N          0.57119000       0.29407000       0.45349000
    37  N          0.57119000       0.20593000       0.95349000
    38  N          0.92881000       0.79407000       0.45349000
    39  N          0.07119000       0.29407000       0.04651000
    40  N          0.42881000       0.70593000       0.54651000
    41  N          0.53961000       0.54257000       0.09401000
    42  N          0.96039000       0.45743000       0.59401000
    43  N          0.03961000       0.95743000       0.90599000
    44  N          0.46039000       0.04257000       0.40599000
    45  N          0.46039000       0.45743000       0.90599000
    46  N          0.03961000       0.54257000       0.40599000
    47  N          0.96039000       0.04257000       0.09401000
    48  N          0.53961000       0.95743000       0.59401000
    49  N          0.46631000       0.86457000       0.16931000
    50  N          0.03369000       0.13543000       0.66931000
    51  N          0.96631000       0.63543000       0.83069000
    52  N          0.53369000       0.36457000       0.33069000
    53  N          0.53369000       0.13543000       0.83069000
    54  N          0.96631000       0.86457000       0.33069000
    55  N          0.03369000       0.36457000       0.16931000
    56  N          0.46631000       0.63543000       0.66931000
    57  N          0.31751000       0.04463000       0.00211000
    58  N          0.18249000       0.95537000       0.50211000
    59  N          0.81751000       0.45537000      -0.00211000
    60  N          0.68249000       0.54463000       0.49789000
    61  N          0.68249000       0.95537000      -0.00211000
    62  N          0.81751000       0.04463000       0.49789000
    63  N          0.18249000       0.54463000       0.00211000
    64  N          0.31751000       0.45537000       0.50211000
    65  C          0.47721000       0.73507000       0.10231000
    66  C          0.02279000       0.26493000       0.60231000
    67  C          0.97721000       0.76493000       0.89769000
    68  C          0.52279000       0.23507000       0.39769000
    69  C          0.52279000       0.26493000       0.89769000
    70  C          0.97721000       0.73507000       0.39769000
    71  C          0.02279000       0.23507000       0.10231000
    72  C          0.47721000       0.76493000       0.60231000
    73  C          0.40371000       0.06713000       0.18521000
    74  C          0.09629000       0.93287000       0.68521000
    75  C          0.90371000       0.43287000       0.81479000
    76  C          0.59629000       0.56713000       0.31479000
    77  C          0.59629000       0.93287000       0.81479000
    78  C          0.90371000       0.06713000       0.31479000
    79  C          0.09629000       0.56713000       0.18521000
    80  C          0.40371000       0.43287000       0.68521000
    81  C          0.35091000       0.12484000       0.12801000
    82  C          0.14909000       0.87516000       0.62801000
    83  C          0.85091000       0.37516000       0.87199000
    84  C          0.64909000       0.62484000       0.37199000
    85  C          0.64909000       0.87516000       0.87199000
    86  C          0.85091000       0.12484000       0.37199000
    87  C          0.14909000       0.62484000       0.12801000
    88  C          0.35091000       0.37516000       0.62801000
    89  C          0.36671000      -0.00923000       0.05991000
    90  C          0.13329000       0.00923000       0.55991000
    91  C          0.86671000       0.50923000       0.94009000
    92  C          0.63329000       0.49077000       0.44009000
    93  C          0.63329000       0.00923000       0.94009000
    94  C          0.86671000      -0.00923000       0.44009000
    95  C          0.13329000       0.49077000       0.05991000
    96  C          0.36671000       0.50923000       0.55991000
    97  H          0.50410000       0.81840000       0.20710000
    98  H         -0.00410000       0.18160000       0.70710000
    99  H          0.00410000       0.68160000       0.79290000
   100  H          0.49590000       0.31840000       0.29290000
   101  H          0.49590000       0.18160000       0.79290000
   102  H          0.00410000       0.81840000       0.29290000
   103  H         -0.00410000       0.31840000       0.20710000
   104  H          0.50410000       0.68160000       0.70710000
   105  H          0.30210000       0.25550000       0.13510000
   106  H          0.19790000       0.74450000       0.63510000
   107  H          0.80210000       0.24450000       0.86490000
   108  H          0.69790000       0.75550000       0.36490000
   109  H          0.69790000       0.74450000       0.86490000
   110  H          0.80210000       0.25550000       0.36490000
   111  H          0.19790000       0.75550000       0.13510000
   112  H          0.30210000       0.24450000       0.63510000
   113  H          0.56910000       0.50450000       0.13210000
   114  H          0.93090000       0.49550000       0.63210000
   115  H          0.06910000      -0.00450000       0.86790000
   116  H          0.43090000       0.00450000       0.36790000
   117  H          0.43090000       0.49550000       0.86790000
   118  H          0.06910000       0.50450000       0.36790000
   119  H          0.93090000       0.00450000       0.13210000
   120  H          0.56910000      -0.00450000       0.63210000
   121  H          0.54610000       0.44640000       0.05010000
   122  H          0.95390000       0.55360000       0.55010000
   123  H          0.04610000       0.05360000       0.94990000
   124  H          0.45390000       0.94640000       0.44990000
   125  H          0.45390000       0.55360000       0.94990000
   126  H          0.04610000       0.44640000       0.44990000
   127  H          0.95390000       0.94640000       0.05010000
   128  H          0.54610000       0.05360000       0.55010000
   129  H          0.33710000      -0.00460000       0.95790000
   130  H          0.16290000       0.00460000       0.45790000
   131  H          0.83710000       0.50460000       0.04210000
   132  H          0.66290000       0.49540000       0.54210000
   133  H          0.66290000       0.00460000       0.04210000
   134  H          0.83710000      -0.00460000       0.54210000
   135  H          0.16290000       0.49540000       0.95790000
   136  H          0.33710000       0.50460000       0.45790000
   137  H          0.28110000       0.19360000       0.00810000
   138  H          0.21890000       0.80640000       0.50810000
   139  H          0.78110000       0.30640000       0.99190000
   140  H          0.71890000       0.69360000       0.49190000
   141  H          0.71890000       0.80640000       0.99190000
   142  H          0.78110000       0.19360000       0.49190000
   143  H          0.21890000       0.69360000       0.00810000
   144  H          0.28110000       0.30640000       0.50810000
