data_SEYDIJ02
_symmetry_space_group_name_H-M    'P1'
_symmetry_Int_Tables_number       1
loop_
_symmetry_equiv_pos_site_id
_symmetry_equiv_pos_as_xyz
1 x,y,z
_cell_length_a                   17.23611
_cell_length_b                   3.9873
_cell_length_c                   18.71712
_cell_angle_alpha                90.0
_cell_angle_beta                 104.4509
_cell_angle_gamma                90.0
loop_
_atom_site_label
_atom_site_type_symbol
_atom_site_fract_x
_atom_site_fract_y
_atom_site_fract_z
     1  O          0.35162120       0.37625000       0.27734110
     2  O          0.64837880       0.37625000       0.22265890
     3  O          0.85162120       0.87625000       0.27734110
     4  O          0.14837880       0.87625000       0.22265890
     5  O          0.64837880       0.62375000       0.72265890
     6  O          0.35162120       0.62375000       0.77734110
     7  O          0.14837880       0.12375000       0.72265890
     8  O          0.85162120       0.12375000       0.77734110
     9  N          0.32226150       0.04506000       0.06546120
    10  N          0.67773850       0.04506000       0.43453880
    11  N          0.82226150       0.54506000       0.06546120
    12  N          0.17773850       0.54506000       0.43453880
    13  N          0.67773850       0.95494000       0.93453880
    14  N          0.32226150       0.95494000       0.56546120
    15  N          0.17773850       0.45494000       0.93453880
    16  N          0.82226150       0.45494000       0.56546120
    17  N          0.21025160       0.77003000       0.08148140
    18  N          0.78974840       0.77003000       0.41851860
    19  N          0.71025160       0.27003000       0.08148140
    20  N          0.28974840       0.27003000       0.41851860
    21  N          0.78974840       0.22997000       0.91851860
    22  N          0.21025160       0.22997000       0.58148140
    23  N          0.28974840       0.72997000       0.91851860
    24  N          0.71025160       0.72997000       0.58148140
    25  H          0.18261600       0.69420000       0.11241500
    26  H          0.81738400       0.69420000       0.38758500
    27  H          0.68261600       0.19420000       0.11241500
    28  H          0.31738400       0.19420000       0.38758500
    29  H          0.81738400       0.30580000       0.88758500
    30  H          0.18261600       0.30580000       0.61241500
    31  H          0.31738400       0.80580000       0.88758500
    32  H          0.68261600       0.80580000       0.61241500
    33  H          0.20241800       0.67230000       0.03691200
    34  H          0.79758200       0.67230000       0.46308800
    35  H          0.70241800       0.17230000       0.03691200
    36  H          0.29758200       0.17230000       0.46308800
    37  H          0.79758200       0.32770000       0.96308800
    38  H          0.20241800       0.32770000       0.53691200
    39  H          0.29758200       0.82770000       0.96308800
    40  H          0.70241800       0.82770000       0.53691200
    41  N          0.28471150       0.07956000       0.17834130
    42  N          0.71528850       0.07956000       0.32165870
    43  N          0.78471150       0.57956000       0.17834130
    44  N          0.21528850       0.57956000       0.32165870
    45  N          0.71528850       0.92044000       0.82165870
    46  N          0.28471150       0.92044000       0.67834130
    47  N          0.21528850       0.42044000       0.82165870
    48  N          0.78471150       0.42044000       0.67834130
    49  H          0.24431400       0.03480000       0.19801600
    50  H          0.75568600       0.03480000       0.30198400
    51  H          0.74431400       0.53480000       0.19801600
    52  H          0.25568600       0.53480000       0.30198400
    53  H          0.75568600      -0.03480000       0.80198400
    54  H          0.24431400      -0.03480000       0.69801600
    55  H          0.25568600       0.46520000       0.80198400
    56  H          0.74431400       0.46520000       0.69801600
    57  N          0.43543170       0.32187000       0.05329140
    58  N          0.56456830       0.32187000       0.44670860
    59  N          0.93543170       0.82187000       0.05329140
    60  N          0.06456830       0.82187000       0.44670860
    61  N          0.56456830       0.67813000       0.94670860
    62  N          0.43543170       0.67813000       0.55329140
    63  N          0.06456830       0.17813000       0.94670860
    64  N          0.93543170       0.17813000       0.55329140
    65  H          0.41801800       0.27080000       0.00791100
    66  H          0.58198200       0.27080000       0.49208900
    67  H          0.91801800       0.77080000       0.00791100
    68  H          0.08198200       0.77080000       0.49208900
    69  H          0.58198200       0.72920000       0.99208900
    70  H          0.41801800       0.72920000       0.50791100
    71  H          0.08198200       0.22920000       0.99208900
    72  H          0.91801800       0.22920000       0.50791100
    73  H          0.47321600       0.47770000       0.07041600
    74  H          0.52678400       0.47770000       0.42958400
    75  H          0.97321600      -0.02230000       0.07041600
    76  H          0.02678400      -0.02230000       0.42958400
    77  H          0.52678400       0.52230000       0.92958400
    78  H          0.47321600       0.52230000       0.57041600
    79  H          0.02678400       0.02230000       0.92958400
    80  H          0.97321600       0.02230000       0.57041600
    81  C          0.27324180       0.96432000       0.10741150
    82  C          0.72675820       0.96432000       0.39258850
    83  C          0.77324180       0.46432000       0.10741150
    84  C          0.22675820       0.46432000       0.39258850
    85  C          0.72675820       0.03568000       0.89258850
    86  C          0.27324180       0.03568000       0.60741150
    87  C          0.22675820       0.53568000       0.89258850
    88  C          0.77324180       0.53568000       0.60741150
    89  C          0.34835170       0.28027000       0.21173150
    90  C          0.65164830       0.28027000       0.28826850
    91  C          0.84835170       0.78027000       0.21173150
    92  C          0.15164830       0.78027000       0.28826850
    93  C          0.65164830       0.71973000       0.78826850
    94  C          0.34835170       0.71973000       0.71173150
    95  C          0.15164830       0.21973000       0.78826850
    96  C          0.84835170       0.21973000       0.71173150
    97  C          0.40169180       0.36008000       0.16933160
    98  C          0.59830820       0.36008000       0.33066840
    99  C          0.90169180       0.86008000       0.16933160
   100  C          0.09830820       0.86008000       0.33066840
   101  C          0.59830820       0.63992000       0.83066840
   102  C          0.40169180       0.63992000       0.66933160
   103  C          0.09830820       0.13992000       0.83066840
   104  C          0.90169180       0.13992000       0.66933160
   105  H          0.44810000       0.49030000       0.18950000
   106  H          0.55190000       0.49030000       0.31050000
   107  H          0.94810000      -0.00970000       0.18950000
   108  H          0.05190000      -0.00970000       0.31050000
   109  H          0.55190000       0.50970000       0.81050000
   110  H          0.44810000       0.50970000       0.68950000
   111  H          0.05190000       0.00970000       0.81050000
   112  H          0.94810000       0.00970000       0.68950000
   113  C          0.38555180       0.24477000       0.09648150
   114  C          0.61444820       0.24477000       0.40351850
   115  C          0.88555180       0.74477000       0.09648150
   116  C          0.11444820       0.74477000       0.40351850
   117  C          0.61444820       0.75523000       0.90351850
   118  C          0.38555180       0.75523000       0.59648150
   119  C          0.11444820       0.25523000       0.90351850
   120  C          0.88555180       0.25523000       0.59648150
   121  O          0.43094140       0.79706000       0.38734140
   122  O          0.56905860       0.79706000       0.11265860
   123  O          0.93094140       0.29706000       0.38734140
   124  O          0.06905860       0.29706000       0.11265860
   125  O          0.56905860       0.20294000       0.61265860
   126  O          0.43094140       0.20294000       0.88734140
   127  O          0.06905860       0.70294000       0.61265860
   128  O          0.93094140       0.70294000       0.88734140
   129  H          0.41220000       0.69990000       0.34771400
   130  H          0.58780000       0.69990000       0.15228600
   131  H          0.91220000       0.19990000       0.34771400
   132  H          0.08780000       0.19990000       0.15228600
   133  H          0.58780000       0.30010000       0.65228600
   134  H          0.41220000       0.30010000       0.84771400
   135  H          0.08780000       0.80010000       0.65228600
   136  H          0.91220000       0.80010000       0.84771400
   137  H          0.45320000      -0.02930000       0.37620000
   138  H          0.54680000      -0.02930000       0.12380000
   139  H          0.95320000       0.47070000       0.37620000
   140  H          0.04680000       0.47070000       0.12380000
   141  H          0.54680000       0.02930000       0.62380000
   142  H          0.45320000       0.02930000       0.87620000
   143  H          0.04680000       0.52930000       0.62380000
   144  H          0.95320000       0.52930000       0.87620000
