data_SEYDIJ01
_symmetry_space_group_name_H-M    'P1'
_symmetry_Int_Tables_number       1
loop_
_symmetry_equiv_pos_site_id
_symmetry_equiv_pos_as_xyz
1 x,y,z
_cell_length_a                   3.92933
_cell_length_b                   8.66117
_cell_length_c                   9.60448
_cell_angle_alpha                83.1115
_cell_angle_beta                 88.0906
_cell_angle_gamma                81.4796
loop_
_atom_site_label
_atom_site_type_symbol
_atom_site_fract_x
_atom_site_fract_y
_atom_site_fract_z
     1  O          0.87233000       0.42708120       0.35218110
     2  O          0.12767000       0.57291880       0.64781890
     3  N          0.05313000       0.85718150       0.16673130
     4  N          0.94687000       0.14281850       0.83326870
     5  N          0.28013000       0.89049160       0.37701140
     6  N          0.71987000       0.10950840       0.62298860
     7  H          0.34550000       0.85620000       0.46271700
     8  H          0.65450000       0.14380000       0.53728300
     9  H          0.34440000       0.97981900       0.33781900
    10  H          0.65560000       0.02018100       0.66218100
    11  N          0.06963000       0.65930140       0.35786130
    12  N          0.93037000       0.34069860       0.64213870
    13  H          0.10540000       0.63220000       0.44611600
    14  H          0.89460000       0.36780000       0.55388400
    15  N          0.83254000       0.82005170       0.95905860
    16  N          0.16746000       0.17994830       0.04094140
    17  H          0.87750000       0.91420000       0.92780000
    18  H          0.12250000       0.08580000       0.07220000
    19  H          0.71350000       0.77220000       0.90758100
    20  H          0.28650000       0.22780000       0.09241900
    21  C          0.13294000       0.80288170       0.29798160
    22  C          0.86706000       0.19711830       0.70201840
    23  C          0.91954000       0.55938170       0.28491160
    24  C          0.08046000       0.44061830       0.71508840
    25  C          0.83824000       0.61166190       0.14700160
    26  C          0.16176000       0.38833810       0.85299840
    27  H          0.73900000       0.54750000       0.09080000
    28  H          0.26100000       0.45250000       0.90920000
    29  C          0.90564000       0.76208190       0.09153160
    30  C          0.09436000       0.23791810       0.90846840
    31  O          0.45413000       0.21283130       0.32544120
    32  O          0.54587000       0.78716870       0.67455880
    33  H          0.60250000       0.27420000       0.31920000
    34  H          0.39750000       0.72580000       0.68080000
    35  H          0.26940000       0.27120000       0.34141900
    36  H          0.73060000       0.72880000       0.65858100
