data_SIHBIV
_symmetry_space_group_name_H-M    'P1'
_symmetry_Int_Tables_number       1
loop_
_symmetry_equiv_pos_site_id
_symmetry_equiv_pos_as_xyz
1 x,y,z
_cell_length_a                   11.41313
_cell_length_b                   9.05432
_cell_length_c                   7.195701
_cell_angle_alpha                90.0
_cell_angle_beta                 100.36168
_cell_angle_gamma                90.0
loop_
_atom_site_label
_atom_site_type_symbol
_atom_site_fract_x
_atom_site_fract_y
_atom_site_fract_z
     1  S          0.72534400       0.40836500       0.24522600
     2  S          0.27465600       0.90836500       0.25477400
     3  S          0.27465600       0.59163500       0.75477400
     4  S          0.72534400       0.09163500       0.74522600
     5  O          0.67842120       0.26056170       0.20332000
     6  O          0.32157880       0.76056170       0.29668000
     7  O          0.32157880       0.73943830       0.79668000
     8  O          0.67842120       0.23943830       0.70332000
     9  O          0.65410120       0.48997160       0.36262000
    10  O          0.34589880      -0.01002840       0.13738000
    11  O          0.34589880       0.51002840       0.63738000
    12  O          0.65410120       0.01002840       0.86262000
    13  C          0.87082150       0.38722000       0.37973000
    14  C          0.12917850       0.88722000       0.12027000
    15  C          0.12917850       0.61278000       0.62027000
    16  C          0.87082150       0.11278000       0.87973000
    17  O          0.73865140       0.49259190       0.07942000
    18  O          0.26134860      -0.00740810       0.42058000
    19  O          0.26134860       0.50740810       0.92058000
    20  O          0.73865140       0.00740810       0.57942000
    21  C          0.91527170       0.24672000       0.40373000
    22  C          0.08472830       0.74672000       0.09627000
    23  C          0.08472830       0.75328000       0.59627000
    24  C          0.91527170       0.25328000       0.90373000
    25  H          0.86830000       0.16660000       0.35580000
    26  H          0.13170000       0.66660000       0.14420000
    27  H          0.13170000       0.83340000       0.64420000
    28  H          0.86830000       0.33340000       0.85580000
    29  C          0.03252170       0.22372000       0.50123000
    30  C          0.96747830       0.72372000      -0.00123000
    31  C          0.96747830       0.77628000       0.49877000
    32  C          0.03252170       0.27628000       0.00123000
    33  H          0.06250000       0.12810000       0.51740000
    34  H          0.93750000       0.62810000      -0.01740000
    35  H          0.93750000       0.87190000       0.48260000
    36  H          0.06250000       0.37190000       0.01740000
    37  C          0.94069150       0.51302000       0.45102000
    38  C          0.05930850       0.01302000       0.04898000
    39  C          0.05930850       0.48698000       0.54898000
    40  C          0.94069150      -0.01302000       0.95102000
    41  C          0.10203160       0.33952000       0.57163000
    42  C          0.89796840       0.83952000       0.92837000
    43  C          0.89796840       0.66048000       0.42837000
    44  C          0.10203160       0.16048000       0.07163000
    45  H          0.17900000       0.32210000       0.63580000
    46  H          0.82100000       0.82210000       0.86420000
    47  H          0.82100000       0.67790000       0.36420000
    48  H          0.17900000       0.17790000       0.13580000
    49  O          0.65443000       0.92452000       0.22653000
    50  O          0.34557000       0.42452000       0.27347000
    51  O          0.34557000       0.07548000       0.77347000
    52  O          0.65443000       0.57548000       0.72653000
    53  H          0.66930000       0.95840000       0.33230000
    54  H          0.33070000       0.45840000       0.16770000
    55  H          0.33070000       0.04160000       0.66770000
    56  H          0.66930000       0.54160000       0.83230000
    57  H          0.66530000       0.96140000       0.13130000
    58  H          0.33470000       0.46140000       0.36870000
    59  H          0.33470000       0.03860000       0.86870000
    60  H          0.66530000       0.53860000       0.63130000
    61  O          0.52651150       0.70960190       0.18903000
    62  O          0.47348850       0.20960190       0.31097000
    63  O          0.47348850       0.29039810       0.81097000
    64  O          0.52651150       0.79039810       0.68903000
    65  H          0.56330000       0.63530000       0.22550000
    66  H          0.43670000       0.13530000       0.27450000
    67  H          0.43670000       0.36470000       0.77450000
    68  H          0.56330000       0.86470000       0.72550000
    69  H          0.58330000       0.80440000       0.21650000
    70  H          0.41670000       0.30440000       0.28350000
    71  H          0.41670000       0.19560000       0.78350000
    72  H          0.58330000       0.69560000       0.71650000
    73  H          0.46320000       0.72040000       0.23550000
    74  H          0.53680000       0.22040000       0.26450000
    75  H          0.53680000       0.27960000       0.76450000
    76  H          0.46320000       0.77960000       0.73550000
