data_SIHBIV01
_symmetry_space_group_name_H-M    'P1'
_symmetry_Int_Tables_number       1
loop_
_symmetry_equiv_pos_site_id
_symmetry_equiv_pos_as_xyz
1 x,y,z
_cell_length_a                   9.118318
_cell_length_b                   7.105114
_cell_length_c                   22.9544
_cell_angle_alpha                90.0
_cell_angle_beta                 95.0801
_cell_angle_gamma                90.0
loop_
_atom_site_label
_atom_site_type_symbol
_atom_site_fract_x
_atom_site_fract_y
_atom_site_fract_z
     1  S          0.43372400       0.15337500       0.63645613
     2  S          0.93372400       0.65337500       0.63645613
     3  S          0.56627600       0.15337500       0.86354387
     4  S          0.06627600       0.65337500       0.86354387
     5  S          0.56627600       0.84662500       0.36354387
     6  S          0.06627600       0.34662500       0.36354387
     7  S          0.43372400       0.84662500       0.13645613
     8  S          0.93372400       0.34662500       0.13645613
     9  O          0.51167120       0.00295150       0.67039400
    10  O          0.01167120       0.50295150       0.67039400
    11  O          0.48832880       0.00295150       0.82960600
    12  O         -0.01167120       0.50295150       0.82960600
    13  O          0.48832880      -0.00295150       0.32960600
    14  O         -0.01167120       0.49704850       0.32960600
    15  O          0.51167120      -0.00295150       0.17039400
    16  O          0.01167120       0.49704850       0.17039400
    17  O          0.29174120       0.19037170       0.65773400
    18  O          0.79174120       0.69037170       0.65773400
    19  O          0.70825880       0.19037170       0.84226600
    20  O          0.20825880       0.69037170       0.84226600
    21  O          0.70825880       0.80962830       0.34226600
    22  O          0.20825880       0.30962830       0.34226600
    23  O          0.29174120       0.80962830       0.15773400
    24  O          0.79174120       0.30962830       0.15773400
    25  O          0.52443140       0.31903150       0.63376500
    26  O          0.02443140       0.81903150       0.63376500
    27  O          0.47556860       0.31903150       0.86623500
    28  O          0.97556860       0.81903150       0.86623500
    29  O          0.47556860       0.68096850       0.36623500
    30  O          0.97556860       0.18096850       0.36623500
    31  O          0.52443140       0.68096850       0.13376500
    32  O          0.02443140       0.18096850       0.13376500
    33  C          0.25634160       0.04342000       0.54291600
    34  C          0.75634160       0.54342000       0.54291600
    35  C          0.74365840       0.04342000       0.95708400
    36  C          0.24365840       0.54342000       0.95708400
    37  C          0.74365840       0.95658000       0.45708400
    38  C          0.24365840       0.45658000       0.45708400
    39  C          0.25634160       0.95658000       0.04291600
    40  C          0.75634160       0.45658000       0.04291600
    41  H          0.18090000       0.06630000       0.56670000
    42  H          0.68090000       0.56630000       0.56670000
    43  H          0.81910000       0.06630000       0.93330000
    44  H          0.31910000       0.56630000       0.93330000
    45  H          0.81910000       0.93370000       0.43330000
    46  H          0.31910000       0.43370000       0.43330000
    47  H          0.18090000       0.93370000       0.06670000
    48  H          0.68090000       0.43370000       0.06670000
    49  C          0.39923150       0.06717190       0.56418500
    50  C          0.89923150       0.56717190       0.56418500
    51  C          0.60076850       0.06717190       0.93581500
    52  C          0.10076850       0.56717190       0.93581500
    53  C          0.60076850       0.93282810       0.43581500
    54  C          0.10076850       0.43282810       0.43581500
    55  C          0.39923150       0.93282810       0.06418500
    56  C          0.89923150       0.43282810       0.06418500
    57  C          0.51847150       0.03049180       0.52944500
    58  C          0.01847150       0.53049180       0.52944500
    59  C          0.48152850       0.03049180       0.97055500
    60  C          0.98152850       0.53049180       0.97055500
    61  C          0.48152850       0.96950820       0.47055500
    62  C          0.98152850       0.46950820       0.47055500
    63  C          0.51847150       0.96950820       0.02944500
    64  C          0.01847150       0.46950820       0.02944500
    65  C          0.66794160       0.05042000       0.55032600
    66  C          0.16794160       0.55042000       0.55032600
    67  C          0.33205840       0.05042000       0.94967400
    68  C          0.83205840       0.55042000       0.94967400
    69  C          0.33205840       0.94958000       0.44967400
    70  C          0.83205840       0.44958000       0.44967400
    71  C          0.66794160       0.94958000       0.05032600
    72  C          0.16794160       0.44958000       0.05032600
    73  H          0.69210000       0.08760000       0.58880000
    74  H          0.19210000       0.58760000       0.58880000
    75  H          0.30790000       0.08760000       0.91120000
    76  H          0.80790000       0.58760000       0.91120000
    77  H          0.30790000       0.91240000       0.41120000
    78  H          0.80790000       0.41240000       0.41120000
    79  H          0.69210000       0.91240000       0.08880000
    80  H          0.19210000       0.41240000       0.08880000
    81  C          0.22300160      -0.01602000       0.48482600
    82  C          0.72300160       0.48398000       0.48482600
    83  C          0.77699840      -0.01602000       0.01517400
    84  C          0.27699840       0.48398000       0.01517400
    85  C          0.77699840       0.01602000       0.51517400
    86  C          0.27699840       0.51602000       0.51517400
    87  C          0.22300160       0.01602000       0.98482600
    88  C          0.72300160       0.51602000       0.98482600
    89  H          0.12530000       0.96810000       0.47030000
    90  H          0.62530000       0.46810000       0.47030000
    91  H          0.87470000       0.96810000       0.02970000
    92  H          0.37470000       0.46810000       0.02970000
    93  H          0.87470000       0.03190000       0.52970000
    94  H          0.37470000       0.53190000       0.52970000
    95  H          0.12530000       0.03190000       0.97030000
    96  H          0.62530000       0.53190000       0.97030000
    97  O          0.75030150       0.03612000       0.74097500
    98  O          0.25030150       0.53612000       0.74097500
    99  O          0.24969850       0.03612000       0.75902500
   100  O          0.74969850       0.53612000       0.75902500
   101  O          0.24969850       0.96388000       0.25902500
   102  O          0.74969850       0.46388000       0.25902500
   103  O          0.75030150       0.96388000       0.24097500
   104  O          0.25030150       0.46388000       0.24097500
   105  H          0.66430000       0.02830000       0.72221100
   106  H          0.16430000       0.52830000       0.72221100
   107  H          0.33570000       0.02830000       0.77778900
   108  H          0.83570000       0.52830000       0.77778900
   109  H          0.33570000       0.97170000       0.27778900
   110  H          0.83570000       0.47170000       0.27778900
   111  H          0.66430000       0.97170000       0.22221100
   112  H          0.16430000       0.47170000       0.22221100
   113  H          0.73620000       0.10340000       0.76901100
   114  H          0.23620000       0.60340000       0.76901100
   115  H          0.26380000       0.10340000       0.73098900
   116  H          0.76380000       0.60340000       0.73098900
   117  H          0.26380000       0.89660000       0.23098900
   118  H          0.76380000       0.39660000       0.23098900
   119  H          0.73620000       0.89660000       0.26901100
   120  H          0.23620000       0.39660000       0.26901100
   121  H          0.83640000       0.09440000       0.72131300
   122  H          0.33640000       0.59440000       0.72131300
   123  H          0.16360000       0.09440000       0.77868700
   124  H          0.66360000       0.59440000       0.77868700
   125  H          0.16360000       0.90560000       0.27868700
   126  H          0.66360000       0.40560000       0.27868700
   127  H          0.83640000       0.90560000       0.22131300
   128  H          0.33640000       0.40560000       0.22131300
   129  O          0.93872000       0.13842000       0.68043100
   130  O          0.43872000       0.63842000       0.68043100
   131  O          0.06128000       0.13842000       0.81956900
   132  O          0.56128000       0.63842000       0.81956900
   133  O          0.06128000       0.86158000       0.31956900
   134  O          0.56128000       0.36158000       0.31956900
   135  O          0.93872000       0.86158000       0.18043100
   136  O          0.43872000       0.36158000       0.18043100
   137  H          0.96240000       0.06060000       0.65781500
   138  H          0.46240000       0.56060000       0.65781500
   139  H          0.03760000       0.06060000       0.84218500
   140  H          0.53760000       0.56060000       0.84218500
   141  H          0.03760000       0.93940000       0.34218500
   142  H          0.53760000       0.43940000       0.34218500
   143  H          0.96240000       0.93940000       0.15781500
   144  H          0.46240000       0.43940000       0.15781500
   145  H          0.96040000       0.25460000       0.67331600
   146  H          0.46040000       0.75460000       0.67331600
   147  H          0.03960000       0.25460000       0.82668400
   148  H          0.53960000       0.75460000       0.82668400
   149  H          0.03960000       0.74540000       0.32668400
   150  H          0.53960000       0.24540000       0.32668400
   151  H          0.96040000       0.74540000       0.17331600
   152  H          0.46040000       0.24540000       0.17331600
