data_SIHBIV05
_symmetry_space_group_name_H-M    'P1'
_symmetry_Int_Tables_number       1
loop_
_symmetry_equiv_pos_site_id
_symmetry_equiv_pos_as_xyz
1 x,y,z
_cell_length_a                   11.4132
_cell_length_b                   9.048718
_cell_length_c                   7.195414
_cell_angle_alpha                90.0
_cell_angle_beta                 100.383
_cell_angle_gamma                90.0
loop_
_atom_site_label
_atom_site_type_symbol
_atom_site_fract_x
_atom_site_fract_y
_atom_site_fract_z
     1  C          0.37073150       0.38684190       0.37972000
     2  C          0.62926850       0.88684190       0.12028000
     3  C          0.62926850       0.61315810       0.62028000
     4  C          0.37073150       0.11315810       0.87972000
     5  C          0.41524150       0.24662000       0.40432000
     6  C          0.58475850       0.74662000       0.09568000
     7  C          0.58475850       0.75338000       0.59568000
     8  C          0.41524150       0.25338000       0.90432000
     9  H          0.36710000       0.16470000       0.35600000
    10  H          0.63290000       0.66470000       0.14400000
    11  H          0.63290000       0.83530000       0.64400000
    12  H          0.36710000       0.33530000       0.85600000
    13  C          0.53243160       0.22342000       0.50113000
    14  C          0.46756840       0.72342000      -0.00113000
    15  C          0.46756840       0.77658000       0.49887000
    16  C          0.53243160       0.27658000       0.00113000
    17  H          0.56310000       0.12580000       0.51720000
    18  H          0.43690000       0.62580000      -0.01720000
    19  H          0.43690000       0.87420000       0.48280000
    20  H          0.56310000       0.37420000       0.01720000
    21  C          0.60206150       0.33956190       0.57193000
    22  C          0.39793850       0.83956190       0.92807000
    23  C          0.39793850       0.66043810       0.42807000
    24  C          0.60206150       0.16043810       0.07193000
    25  H          0.68070000       0.32170000       0.63770000
    26  H          0.31930000       0.82170000       0.86230000
    27  H          0.31930000       0.67830000       0.36230000
    28  H          0.68070000       0.17830000       0.13770000
    29  C          0.44070150       0.51304190       0.45082000
    30  C          0.55929850       0.01304190       0.04918000
    31  C          0.55929850       0.48695810       0.54918000
    32  C          0.44070150      -0.01304190       0.95082000
    33  O          0.15404110       0.48987140       0.36236180
    34  O          0.84595890      -0.01012860       0.13763820
    35  O          0.84595890       0.51012860       0.63763820
    36  O          0.15404110       0.01012860       0.86236180
    37  O          0.23860120       0.49267170       0.07934180
    38  O          0.76139880      -0.00732830       0.42065820
    39  O          0.76139880       0.50732830       0.92065820
    40  O          0.23860120       0.00732830       0.57934180
    41  O          0.17837110       0.26045150       0.20322190
    42  O          0.82162890       0.76045150       0.29677810
    43  O          0.82162890       0.73954850       0.79677810
    44  O          0.17837110       0.23954850       0.70322190
    45  S          0.22534300       0.40844500       0.24521600
    46  S          0.77465700       0.90844500       0.25478400
    47  S          0.77465700       0.59155500       0.75478400
    48  S          0.22534300       0.09155500       0.74521600
    49  O          0.97381870       0.20914160       0.31132000
    50  O          0.02618130       0.70914160       0.18868000
    51  O          0.02618130       0.79085840       0.68868000
    52  O          0.97381870       0.29085840       0.81132000
    53  H          0.93348200       0.12441700       0.25730000
    54  H          0.06651800       0.62441700       0.24270000
    55  H          0.06651800       0.87558300       0.74270000
    56  H          0.93348200       0.37558300       0.75730000
    57  H          0.04431300       0.22620000       0.26330000
    58  H          0.95568700       0.72620000       0.23670000
    59  H          0.95568700       0.77380000       0.73670000
    60  H          0.04431300       0.27380000       0.76330000
    61  H          0.92288400       0.29281700       0.28730000
    62  H          0.07711600       0.79281700       0.21270000
    63  H          0.07711600       0.70718300       0.71270000
    64  H          0.92288400       0.20718300       0.78730000
    65  O          0.15462000       0.57542000       0.72622000
    66  O          0.84538000       0.07542000       0.77378000
    67  O          0.84538000       0.42458000       0.27378000
    68  O          0.15462000       0.92458000       0.22622000
    69  H          0.15630000       0.51930000       0.62020000
    70  H          0.84370000       0.01930000       0.87980000
    71  H          0.84370000       0.48070000       0.37980000
    72  H          0.15630000       0.98070000       0.12020000
    73  H          0.17430000       0.52630000       0.84120000
    74  H          0.82570000       0.02630000       0.65880000
    75  H          0.82570000       0.47370000       0.15880000
    76  H          0.17430000       0.97370000       0.34120000
