data_SIKLIH04
_symmetry_space_group_name_H-M    'P1'
_symmetry_Int_Tables_number       1
loop_
_symmetry_equiv_pos_site_id
_symmetry_equiv_pos_as_xyz
1 x,y,z
_cell_length_a                   7.08245
_cell_length_b                   17.256512
_cell_length_c                   23.606516
_cell_angle_alpha                90.0
_cell_angle_beta                 90.0
_cell_angle_gamma                90.0
loop_
_atom_site_label
_atom_site_type_symbol
_atom_site_fract_x
_atom_site_fract_y
_atom_site_fract_z
     1  C          0.21899000       0.97397000       0.36733000
     2  C          0.28101000       0.52603000       0.86733000
     3  C          0.21899000       0.02603000       0.13267000
     4  C          0.28101000       0.47397000       0.63267000
     5  C          0.78101000       0.02603000       0.63267000
     6  C          0.71899000       0.47397000       0.13267000
     7  C          0.78101000       0.97397000       0.86733000
     8  C          0.71899000       0.52603000       0.36733000
     9  C          0.16889000       0.89536000       0.36693000
    10  C          0.33111000       0.60464000       0.86693000
    11  C          0.16889000       0.10464000       0.13307000
    12  C          0.33111000       0.39536000       0.63307000
    13  C          0.83111000       0.10464000       0.63307000
    14  C          0.66889000       0.39536000       0.13307000
    15  C          0.83111000       0.89536000       0.86693000
    16  C          0.66889000       0.60464000       0.36693000
    17  C          0.28511100       0.83866000       0.34403000
    18  C          0.21488900       0.66134000       0.84403000
    19  C          0.28511100       0.16134000       0.15597000
    20  C          0.21488900       0.33866000       0.65597000
    21  C          0.71488900       0.16134000       0.65597000
    22  C          0.78511100       0.33866000       0.15597000
    23  C          0.71488900       0.83866000       0.84403000
    24  C          0.78511100       0.66134000       0.34403000
    25  H          0.25010000       0.78680000       0.34560000
    26  H          0.24990000       0.71320000       0.84560000
    27  H          0.25010000       0.21320000       0.15440000
    28  H          0.24990000       0.28680000       0.65440000
    29  H          0.74990000       0.21320000       0.65440000
    30  H          0.75010000       0.28680000       0.15440000
    31  H          0.74990000       0.78680000       0.84560000
    32  H          0.75010000       0.71320000       0.34560000
    33  C          0.45291100       0.86016000       0.31903000
    34  C          0.04708900       0.63984000       0.81903000
    35  C          0.45291100       0.13984000       0.18097000
    36  C          0.04708900       0.36016000       0.68097000
    37  C          0.54708900       0.13984000       0.68097000
    38  C          0.95291100       0.36016000       0.18097000
    39  C          0.54708900       0.86016000       0.81903000
    40  C          0.95291100       0.63984000       0.31903000
    41  H          0.52970000       0.82260000       0.30280000
    42  H          0.97030000       0.67740000       0.80280000
    43  H          0.52970000       0.17740000       0.19720000
    44  H          0.97030000       0.32260000       0.69720000
    45  H          0.47030000       0.17740000       0.69720000
    46  H          0.02970000       0.32260000       0.19720000
    47  H          0.47030000       0.82260000       0.80280000
    48  H          0.02970000       0.67740000       0.30280000
    49  C          0.50891000       0.93756000       0.31783000
    50  C         -0.00891000       0.56244000       0.81783000
    51  C          0.50891000       0.06244000       0.18217000
    52  C         -0.00891000       0.43756000       0.68217000
    53  C          0.49109000       0.06244000       0.68217000
    54  C          0.00891000       0.43756000       0.18217000
    55  C          0.49109000       0.93756000       0.81783000
    56  C          0.00891000       0.56244000       0.31783000
    57  H          0.62170000       0.95200000       0.30060000
    58  H          0.87830000       0.54800000       0.80060000
    59  H          0.62170000       0.04800000       0.19940000
    60  H          0.87830000       0.45200000       0.69940000
    61  H          0.37830000       0.04800000       0.69940000
    62  H          0.12170000       0.45200000       0.19940000
    63  H          0.37830000       0.95200000       0.80060000
    64  H          0.12170000       0.54800000       0.30060000
    65  C          0.39229000      -0.00674000       0.34303000
    66  C          0.10771000       0.50674000       0.84303000
    67  C          0.39229000       0.00674000       0.15697000
    68  C          0.10771000       0.49326000       0.65697000
    69  C          0.60771000       0.00674000       0.65697000
    70  C          0.89229000       0.49326000       0.15697000
    71  C          0.60771000      -0.00674000       0.84303000
    72  C          0.89229000       0.50674000       0.34303000
    73  C          0.02129000       0.09123000       0.36053000
    74  C          0.47871000       0.40877000       0.86053000
    75  C          0.02129000       0.90877000       0.13947000
    76  C          0.47871000       0.59123000       0.63947000
    77  C          0.97871000       0.90877000       0.63947000
    78  C          0.52129000       0.59123000       0.13947000
    79  C          0.97871000       0.09123000       0.86053000
    80  C          0.52129000       0.40877000       0.36053000
    81  C          0.01871000       0.09334000       0.30203000
    82  C          0.48129000       0.40666000       0.80203000
    83  C          0.01871000       0.90666000       0.19797000
    84  C          0.48129000       0.59334000       0.69797000
    85  C         -0.01871000       0.90666000       0.69797000
    86  C          0.51871000       0.59334000       0.19797000
    87  C         -0.01871000       0.09334000       0.80203000
    88  C          0.51871000       0.40666000       0.30203000
    89  H          0.07580000       0.05350000       0.28170000
    90  H          0.42420000       0.44650000       0.78170000
    91  H          0.07580000       0.94650000       0.21830000
    92  H          0.42420000       0.55350000       0.71830000
    93  H          0.92420000       0.94650000       0.71830000
    94  H          0.57580000       0.55350000       0.21830000
    95  H          0.92420000       0.05350000       0.78170000
    96  H          0.57580000       0.44650000       0.28170000
    97  C          0.93269000       0.15334000       0.27333000
    98  C          0.56731000       0.34666000       0.77333000
    99  C          0.93269000       0.84666000       0.22667000
   100  C          0.56731000       0.65334000       0.72667000
   101  C          0.06731000       0.84666000       0.72667000
   102  C          0.43269000       0.65334000       0.22667000
   103  C          0.06731000       0.15334000       0.77333000
   104  C          0.43269000       0.34666000       0.27333000
   105  H          0.92890000       0.15280000       0.23390000
   106  H          0.57110000       0.34720000       0.73390000
   107  H          0.92890000       0.84720000       0.26610000
   108  H          0.57110000       0.65280000       0.76610000
   109  H          0.07110000       0.84720000       0.76610000
   110  H          0.42890000       0.65280000       0.26610000
   111  H          0.07110000       0.15280000       0.73390000
   112  H          0.42890000       0.34720000       0.23390000
   113  C          0.85351000       0.21314000       0.30233000
   114  C          0.64649000       0.28686000       0.80233000
   115  C          0.85351000       0.78686000       0.19767000
   116  C          0.64649000       0.71314000       0.69767000
   117  C          0.14649000       0.78686000       0.69767000
   118  C          0.35351000       0.71314000       0.19767000
   119  C          0.14649000       0.21314000       0.80233000
   120  C          0.35351000       0.28686000       0.30233000
   121  H          0.79500000       0.25330000       0.28280000
   122  H          0.70500000       0.24670000       0.78280000
   123  H          0.79500000       0.74670000       0.21720000
   124  H          0.70500000       0.75330000       0.71720000
   125  H          0.20500000       0.74670000       0.71720000
   126  H          0.29500000       0.75330000       0.21720000
   127  H          0.20500000       0.25330000       0.78280000
   128  H          0.29500000       0.24670000       0.28280000
   129  C          0.86031000       0.21424000       0.36043000
   130  C          0.63969000       0.28576000       0.86043000
   131  C          0.86031000       0.78576000       0.13957000
   132  C          0.63969000       0.71424000       0.63957000
   133  C          0.13969000       0.78576000       0.63957000
   134  C          0.36031000       0.71424000       0.13957000
   135  C          0.13969000       0.21424000       0.86043000
   136  C          0.36031000       0.28576000       0.36043000
   137  H          0.80860000       0.25590000       0.37990000
   138  H          0.69140000       0.24410000       0.87990000
   139  H          0.80860000       0.74410000       0.12010000
   140  H          0.69140000       0.75590000       0.62010000
   141  H          0.19140000       0.74410000       0.62010000
   142  H          0.30860000       0.75590000       0.12010000
   143  H          0.19140000       0.25590000       0.87990000
   144  H          0.30860000       0.24410000       0.37990000
   145  C          0.94242000       0.15463000       0.39043000
   146  C          0.55758000       0.34537000       0.89043000
   147  C          0.94242000       0.84537000       0.10957000
   148  C          0.55758000       0.65463000       0.60957000
   149  C          0.05758000       0.84537000       0.60957000
   150  C          0.44242000       0.65463000       0.10957000
   151  C          0.05758000       0.15463000       0.89043000
   152  C          0.44242000       0.34537000       0.39043000
   153  C          0.94761000       0.15634000       0.45503000
   154  C          0.55239000       0.34366000       0.95503000
   155  C          0.94761000       0.84366000       0.04497000
   156  C          0.55239000       0.65634000       0.54497000
   157  C          0.05239000       0.84366000       0.54497000
   158  C          0.44761000       0.65634000       0.04497000
   159  C          0.05239000       0.15634000       0.95503000
   160  C          0.44761000       0.34366000       0.45503000
   161  H          0.06690000       0.13520000       0.46810000
   162  H          0.43310000       0.36480000       0.96810000
   163  H          0.06690000       0.86480000       0.03190000
   164  H          0.43310000       0.63520000       0.53190000
   165  H          0.93310000       0.86480000       0.53190000
   166  H          0.56690000       0.63520000       0.03190000
   167  H          0.93310000       0.13520000       0.96810000
   168  H          0.56690000       0.36480000       0.46810000
   169  H          0.93860000       0.20940000       0.46800000
   170  H          0.56140000       0.29060000       0.96800000
   171  H          0.93860000       0.79060000       0.03200000
   172  H          0.56140000       0.70940000       0.53200000
   173  H          0.06140000       0.79060000       0.53200000
   174  H          0.43860000       0.70940000       0.03200000
   175  H          0.06140000       0.20940000       0.96800000
   176  H          0.43860000       0.29060000       0.46800000
   177  C          0.78881000       0.11004000       0.47913000
   178  C          0.71119000       0.38996000       0.97913000
   179  C          0.78881000       0.88996000       0.02087000
   180  C          0.71119000       0.61004000       0.52087000
   181  C          0.21119000       0.88996000       0.52087000
   182  C          0.28881000       0.61004000       0.02087000
   183  C          0.21119000       0.11004000       0.97913000
   184  C          0.28881000       0.38996000       0.47913000
   185  Cl         0.47303000       0.08724100       0.34442900
   186  Cl         0.02697000       0.41275900       0.84442900
   187  Cl         0.47303000       0.91275900       0.15557100
   188  Cl         0.02697000       0.58724100       0.65557100
   189  Cl         0.52697000       0.91275900       0.65557100
   190  Cl         0.97303000       0.58724100       0.15557100
   191  Cl         0.52697000       0.08724100       0.84442900
   192  Cl         0.97303000       0.41275900       0.34442900
   193  Cl         0.95677000       0.86777880       0.39651800
   194  Cl         0.54323000       0.63222120       0.89651800
   195  Cl         0.95677000       0.13222120       0.10348200
   196  Cl         0.54323000       0.36777880       0.60348200
   197  Cl         0.04323000       0.13222120       0.60348200
   198  Cl         0.45677000       0.36777880       0.10348200
   199  Cl         0.04323000       0.86777880       0.89651800
   200  Cl         0.45677000       0.63222120       0.39651800
   201  N          0.10409000       0.03093000       0.39172000
   202  N          0.39591000       0.46907000       0.89172000
   203  N          0.10409000       0.96907000       0.10828000
   204  N          0.39591000       0.53093000       0.60828000
   205  N          0.89591000       0.96907000       0.60828000
   206  N          0.60409000       0.53093000       0.10828000
   207  N          0.89591000       0.03093000       0.89172000
   208  N          0.60409000       0.46907000       0.39172000
   209  O          0.78523000       0.04133000       0.48122000
   210  O          0.71477000       0.45867000       0.98122000
   211  O          0.78523000       0.95867000       0.01878000
   212  O          0.71477000       0.54133000       0.51878000
   213  O          0.21477000       0.95867000       0.51878000
   214  O          0.28523000       0.54133000       0.01878000
   215  O          0.21477000       0.04133000       0.98122000
   216  O          0.28523000       0.45867000       0.48122000
   217  O          0.64654000       0.15603000       0.49502000
   218  O          0.85346000       0.34397000      -0.00498000
   219  O          0.64654000       0.84397000       0.00498000
   220  O          0.85346000       0.65603000       0.50498000
   221  O          0.35346000       0.84397000       0.50498000
   222  O          0.14654000       0.65603000       0.00498000
   223  O          0.35346000       0.15603000      -0.00498000
   224  O          0.14654000       0.34397000       0.49502000
   225  H          0.03112000       0.00450000       0.40740000
   226  H          0.46888000       0.49550000       0.90740000
   227  H          0.03112000      -0.00450000       0.09260000
   228  H          0.46888000       0.50450000       0.59260000
   229  H          0.96888000      -0.00450000       0.59260000
   230  H          0.53112000       0.50450000       0.09260000
   231  H          0.96888000       0.00450000       0.90740000
   232  H          0.53112000       0.49550000       0.40740000
   233  H          0.47340000       0.11720000       0.51421600
   234  H          0.02660000       0.38280000       0.01421600
   235  H          0.47340000       0.88280000       0.98578400
   236  H          0.02660000       0.61720000       0.48578400
   237  H          0.52660000       0.88280000       0.48578400
   238  H          0.97340000       0.61720000       0.98578400
   239  H          0.52660000       0.11720000       0.01421600
   240  H          0.97340000       0.38280000       0.51421600
