data_SIKLIH02
_symmetry_space_group_name_H-M    'P1'
_symmetry_Int_Tables_number       1
loop_
_symmetry_equiv_pos_site_id
_symmetry_equiv_pos_as_xyz
1 x,y,z
_cell_length_a                   8.3842
_cell_length_b                   10.8982
_cell_length_c                   14.8225
_cell_angle_alpha                90.0
_cell_angle_beta                 92.762
_cell_angle_gamma                90.0
loop_
_atom_site_label
_atom_site_type_symbol
_atom_site_fract_x
_atom_site_fract_y
_atom_site_fract_z
     1  Cl         0.78330200       0.84534200       0.70559500
     2  Cl         0.21669800       0.34534200       0.79440500
     3  Cl         0.21669800       0.15465800       0.29440500
     4  Cl         0.78330200       0.65465800       0.20559500
     5  Cl         0.36003800       0.89938200       0.56340500
     6  Cl         0.63996200       0.39938200       0.93659500
     7  Cl         0.63996200       0.10061800       0.43659500
     8  Cl         0.36003800       0.60061800       0.06340500
     9  N          0.13343000       0.90098000       0.71313860
    10  N          0.86657000       0.40098000       0.78686140
    11  N          0.86657000       0.09902000       0.28686140
    12  N          0.13343000       0.59902000       0.21313860
    13  C          0.25513000       0.83158000       0.75802850
    14  C          0.74487000       0.33158000       0.74197150
    15  C          0.74487000       0.16842000       0.24197150
    16  C          0.25513000       0.66842000       0.25802850
    17  C          0.34663000       0.88518000       0.82898850
    18  C          0.65337000       0.38518000       0.67101150
    19  C          0.65337000       0.11482000       0.17101150
    20  C          0.34663000       0.61482000       0.32898850
    21  C          0.46863000       0.81707000       0.87018000
    22  C          0.53137000       0.31707000       0.62982000
    23  C          0.53137000       0.18293000       0.12982000
    24  C          0.46863000       0.68293000       0.37018000
    25  C          0.50113000       0.69967000       0.84418000
    26  C          0.49887000       0.19967000       0.65582000
    27  C          0.49887000       0.30033000       0.15582000
    28  C          0.50113000       0.80033000       0.34418000
    29  C          0.40953000       0.64737000       0.77618000
    30  C          0.59047000       0.14737000       0.72382000
    31  C          0.59047000       0.35263000       0.22382000
    32  C          0.40953000       0.85263000       0.27618000
    33  C          0.28653000       0.71198000       0.73268000
    34  C          0.71347000       0.21198000       0.76732000
    35  C          0.71347000       0.28802000       0.26732000
    36  C          0.28653000       0.78802000       0.23268000
    37  C          0.06753000       0.86768000       0.62879850
    38  C          0.93247000       0.36768000       0.87120150
    39  C          0.93247000       0.13232000       0.37120150
    40  C          0.06753000       0.63232000       0.12879850
    41  C          0.90507000       0.84298000       0.61398000
    42  C          0.09493000       0.34298000       0.88602000
    43  C          0.09493000       0.15702000       0.38602000
    44  C          0.90507000       0.65702000       0.11398000
    45  C          0.83836000       0.81637000       0.53008000
    46  C          0.16164000       0.31637000       0.96992000
    47  C          0.16164000       0.18363000       0.46992000
    48  C          0.83836000       0.68363000       0.03008000
    49  C          0.93256000       0.81017000       0.45818000
    50  C          0.06744000       0.31017000       0.04182000
    51  C          0.06744000       0.18983000       0.54182000
    52  C          0.93256000       0.68983000       0.95818000
    53  C          0.09444000       0.83297000       0.46878000
    54  C          0.90556000       0.33297000       0.03122000
    55  C          0.90556000       0.16703000       0.53122000
    56  C          0.09444000       0.66703000       0.96878000
    57  C          0.15893000       0.86288000       0.55258000
    58  C          0.84107000       0.36288000       0.94742000
    59  C          0.84107000       0.13712000       0.44742000
    60  C          0.15893000       0.63712000       0.05258000
    61  C          0.31243000       0.01283000       0.86098000
    62  C          0.68757000       0.51283000       0.63902000
    63  C          0.68757000       0.98717000       0.13902000
    64  C          0.31243000       0.48717000       0.36098000
    65  C          0.17453000       0.00882000       0.92238000
    66  C          0.82547000       0.50882000       0.57762000
    67  C          0.82547000      -0.00882000       0.07762000
    68  C          0.17453000       0.49118000       0.42238000
    69  O          0.03542000       0.00662000       0.89152890
    70  O          0.96458000       0.50662000       0.60847110
    71  O          0.96458000      -0.00662000       0.10847110
    72  O          0.03542000       0.49338000       0.39152890
    73  O          0.21362000       0.00462000       0.00759120
    74  O          0.78638000       0.50462000       0.49240880
    75  O          0.78638000      -0.00462000      -0.00759120
    76  O          0.21362000       0.49538000       0.50759120
    77  H          0.07512800       0.93007600       0.74478300
    78  H          0.92487200       0.43007600       0.75521700
    79  H          0.92487200       0.06992400       0.25521700
    80  H          0.07512800       0.56992400       0.24478300
    81  H          0.52412800       0.85127700       0.91988500
    82  H          0.47587200       0.35127700       0.58011500
    83  H          0.47587200       0.14872300       0.08011500
    84  H          0.52412800       0.64872300       0.41988500
    85  H          0.58462900       0.65277700       0.87208300
    86  H          0.41537100       0.15277700       0.62791700
    87  H          0.41537100       0.34722300       0.12791700
    88  H          0.58462900       0.84722300       0.37208300
    89  H          0.42612900       0.56798100       0.75728300
    90  H          0.57387100       0.06798100       0.74271700
    91  H          0.57387100       0.43201900       0.24271700
    92  H          0.42612900       0.93201900       0.25728300
    93  H          0.22642700       0.67787800       0.68548600
    94  H          0.77357300       0.17787800       0.81451400
    95  H          0.77357300       0.32212200       0.31451400
    96  H          0.22642700       0.82212200       0.18548600
    97  H          0.72827600       0.80417400       0.52778200
    98  H          0.27172400       0.30417400       0.97221800
    99  H          0.27172400       0.19582600       0.47221800
   100  H          0.72827600       0.69582600       0.02778200
   101  H          0.89236900       0.79267600       0.40118600
   102  H          0.10763100       0.29267600       0.09881400
   103  H          0.10763100       0.20732400       0.59881400
   104  H          0.89236900       0.70732400       0.90118600
   105  H          0.15663100       0.82907400       0.41918400
   106  H          0.84336900       0.32907400       0.08081600
   107  H          0.84336900       0.17092600       0.58081600
   108  H          0.15663100       0.67092600       0.91918400
   109  H          0.27602500       0.06422100       0.81008600
   110  H          0.72397500       0.56422100       0.68991400
   111  H          0.72397500       0.93577900       0.18991400
   112  H          0.27602500       0.43577900       0.31008600
   113  H          0.40582500       0.05002200       0.89128500
   114  H          0.59417500       0.55002200       0.60871500
   115  H          0.59417500       0.94997800       0.10871500
   116  H          0.40582500       0.44997800       0.39128500
   117  H          0.10984400      -0.00073400       0.04692500
   118  H          0.89015600       0.49926600       0.45307500
   119  H          0.89015600       0.00073400       0.95307500
   120  H          0.10984400       0.50073400       0.54692500
