data_SIKLIH
_symmetry_space_group_name_H-M    'P1'
_symmetry_Int_Tables_number       1
loop_
_symmetry_equiv_pos_site_id
_symmetry_equiv_pos_as_xyz
1 x,y,z
_cell_length_a                   20.2784
_cell_length_b                   6.9871
_cell_length_c                   23.2656
_cell_angle_alpha                90.0
_cell_angle_beta                 125.54
_cell_angle_gamma                90.0
loop_
_atom_site_label
_atom_site_type_symbol
_atom_site_fract_x
_atom_site_fract_y
_atom_site_fract_z
     1  Cl         0.41933400       0.41711000       0.31443400
     2  Cl         0.91933400       0.91711000       0.31443400
     3  Cl         0.58066600       0.41711000       0.18556600
     4  Cl         0.08066600       0.91711000       0.18556600
     5  Cl         0.58066600       0.58289000       0.68556600
     6  Cl         0.08066600       0.08289000       0.68556600
     7  Cl         0.41933400       0.58289000       0.81443400
     8  Cl         0.91933400       0.08289000       0.81443400
     9  Cl         0.65841000       0.89409000       0.45761000
    10  Cl         0.15841000       0.39409000       0.45761000
    11  Cl         0.34159000       0.89409000       0.04239000
    12  Cl         0.84159000       0.39409000       0.04239000
    13  Cl         0.34159000       0.10591000       0.54239000
    14  Cl         0.84159000       0.60591000       0.54239000
    15  Cl         0.65841000       0.10591000       0.95761000
    16  Cl         0.15841000       0.60591000       0.95761000
    17  O          0.39601000       0.57607000       0.46161000
    18  O          0.89601000       0.07607000       0.46161000
    19  O          0.60399000       0.57607000       0.03839000
    20  O          0.10399000       0.07607000       0.03839000
    21  O          0.60399000       0.42393000       0.53839000
    22  O          0.10399000       0.92393000       0.53839000
    23  O          0.39601000       0.42393000       0.96161000
    24  O          0.89601000       0.92393000       0.96161000
    25  O          0.50191000       0.71257000       0.47271000
    26  O          0.00191000       0.21257000       0.47271000
    27  O          0.49809000       0.71257000       0.02729000
    28  O         -0.00191000       0.21257000       0.02729000
    29  O          0.49809000       0.28743000       0.52729000
    30  O         -0.00191000       0.78743000       0.52729000
    31  O          0.50191000       0.28743000       0.97271000
    32  O          0.00191000       0.78743000       0.97271000
    33  N          0.48911000       0.03563000       0.38601000
    34  N         -0.01089000       0.53563000       0.38601000
    35  N          0.51089000       0.03563000       0.11399000
    36  N          0.01089000       0.53563000       0.11399000
    37  N          0.51089000       0.96437000       0.61399000
    38  N          0.01089000       0.46437000       0.61399000
    39  N          0.48911000       0.96437000       0.88601000
    40  N         -0.01089000       0.46437000       0.88601000
    41  C          0.35941000       0.88126000       0.33551000
    42  C          0.85941000       0.38126000       0.33551000
    43  C          0.64059000       0.88126000       0.16449000
    44  C          0.14059000       0.38126000       0.16449000
    45  C          0.64059000       0.11874000       0.66449000
    46  C          0.14059000       0.61874000       0.66449000
    47  C          0.35941000       0.11874000       0.83551000
    48  C          0.85941000       0.61874000       0.83551000
    49  C          0.41541000       0.96196000       0.32581000
    50  C          0.91541000       0.46196000       0.32581000
    51  C          0.58459000       0.96196000       0.17419000
    52  C          0.08459000       0.46196000       0.17419000
    53  C          0.58459000       0.03804000       0.67419000
    54  C          0.08459000       0.53804000       0.67419000
    55  C          0.41541000       0.03804000       0.82581000
    56  C          0.91541000       0.53804000       0.82581000
    57  C          0.39851000       0.96566000       0.25851000
    58  C          0.89851000       0.46566000       0.25851000
    59  C          0.60149000       0.96566000       0.24149000
    60  C          0.10149000       0.46566000       0.24149000
    61  C          0.60149000       0.03434000       0.74149000
    62  C          0.10149000       0.53434000       0.74149000
    63  C          0.39851000       0.03434000       0.75851000
    64  C          0.89851000       0.53434000       0.75851000
    65  C          0.32692000       0.88676000       0.20151000
    66  C          0.82692000       0.38676000       0.20151000
    67  C          0.67308000       0.88676000       0.29849000
    68  C          0.17308000       0.38676000       0.29849000
    69  C          0.67308000       0.11324000       0.79849000
    70  C          0.17308000       0.61324000       0.79849000
    71  C          0.32692000       0.11324000       0.70151000
    72  C          0.82692000       0.61324000       0.70151000
    73  C          0.27161000       0.80446000       0.21081000
    74  C          0.77161000       0.30446000       0.21081000
    75  C          0.72839000       0.80446000       0.28919000
    76  C          0.22839000       0.30446000       0.28919000
    77  C          0.72839000       0.19554000       0.78919000
    78  C          0.22839000       0.69554000       0.78919000
    79  C          0.27161000       0.19554000       0.71081000
    80  C          0.77161000       0.69554000       0.71081000
    81  C          0.28831000       0.80086000       0.27771000
    82  C          0.78831000       0.30086000       0.27771000
    83  C          0.71169000       0.80086000       0.22229000
    84  C          0.21169000       0.30086000       0.22229000
    85  C          0.71169000       0.19914000       0.72229000
    86  C          0.21169000       0.69914000       0.72229000
    87  C          0.28831000       0.19914000       0.77771000
    88  C          0.78831000       0.69914000       0.77771000
    89  C          0.54061000       0.15604000       0.38111000
    90  C          0.04061000       0.65604000       0.38111000
    91  C          0.45939000       0.15604000       0.11889000
    92  C          0.95939000       0.65604000       0.11889000
    93  C          0.45939000       0.84396000       0.61889000
    94  C          0.95939000       0.34396000       0.61889000
    95  C          0.54061000       0.84396000       0.88111000
    96  C          0.04061000       0.34396000       0.88111000
    97  C          0.62171000       0.11124000       0.41311000
    98  C          0.12171000       0.61124000       0.41311000
    99  C          0.37829000       0.11124000       0.08689000
   100  C          0.87829000       0.61124000       0.08689000
   101  C          0.37829000       0.88876000       0.58689000
   102  C          0.87829000       0.38876000       0.58689000
   103  C          0.62171000       0.88876000       0.91311000
   104  C          0.12171000       0.38876000       0.91311000
   105  C          0.67531000       0.23054000       0.41131000
   106  C          0.17531000       0.73054000       0.41131000
   107  C          0.32469000       0.23054000       0.08869000
   108  C          0.82469000       0.73054000       0.08869000
   109  C          0.32469000       0.76946000       0.58869000
   110  C          0.82469000       0.26946000       0.58869000
   111  C          0.67531000       0.76946000       0.91131000
   112  C          0.17531000       0.26946000       0.91131000
   113  C          0.64742000       0.40344000       0.37611000
   114  C          0.14742000       0.90344000       0.37611000
   115  C          0.35258000       0.40344000       0.12389000
   116  C          0.85258000       0.90344000       0.12389000
   117  C          0.35258000       0.59656000       0.62389000
   118  C          0.85258000       0.09656000       0.62389000
   119  C          0.64742000       0.59656000       0.87611000
   120  C          0.14742000       0.09656000       0.87611000
   121  C          0.56772000       0.45774000       0.34541000
   122  C          0.06772000       0.95774000       0.34541000
   123  C          0.43228000       0.45774000       0.15459000
   124  C          0.93228000       0.95774000       0.15459000
   125  C          0.43228000       0.54226000       0.65459000
   126  C          0.93228000       0.04226000       0.65459000
   127  C          0.56772000       0.54226000       0.84541000
   128  C          0.06772000       0.04226000       0.84541000
   129  C          0.51671000       0.33624000       0.34881000
   130  C          0.01671000       0.83624000       0.34881000
   131  C          0.48329000       0.33624000       0.15119000
   132  C          0.98329000       0.83624000       0.15119000
   133  C          0.48329000       0.66376000       0.65119000
   134  C          0.98329000       0.16376000       0.65119000
   135  C          0.51671000       0.66376000       0.84881000
   136  C          0.01671000       0.16376000       0.84881000
   137  C          0.37501000       0.87986000       0.40741000
   138  C          0.87501000       0.37986000       0.40741000
   139  C          0.62499000       0.87986000       0.09259000
   140  C          0.12499000       0.37986000       0.09259000
   141  C          0.62499000       0.12014000       0.59259000
   142  C          0.12499000       0.62014000       0.59259000
   143  C          0.37501000       0.12014000       0.90741000
   144  C          0.87501000       0.62014000       0.90741000
   145  C          0.43041000       0.71526000       0.45081000
   146  C          0.93041000       0.21526000       0.45081000
   147  C          0.56959000       0.71526000       0.04919000
   148  C          0.06959000       0.21526000       0.04919000
   149  C          0.56959000       0.28474000       0.54919000
   150  C          0.06959000       0.78474000       0.54919000
   151  C          0.43041000       0.28474000       0.95081000
   152  C          0.93041000       0.78474000       0.95081000
   153  H          0.43610000       0.45960000       0.48710000
   154  H          0.93610000       0.95960000       0.48710000
   155  H          0.56390000       0.45960000       0.01290000
   156  H          0.06390000       0.95960000       0.01290000
   157  H          0.56390000       0.54040000       0.51290000
   158  H          0.06390000       0.04040000       0.51290000
   159  H          0.43610000       0.54040000       0.98710000
   160  H          0.93610000       0.04040000       0.98710000
   161  H          0.51410000       0.93860000       0.42710000
   162  H          0.01410000       0.43860000       0.42710000
   163  H          0.48590000       0.93860000       0.07290000
   164  H          0.98590000       0.43860000       0.07290000
   165  H          0.48590000       0.06140000       0.57290000
   166  H          0.98590000       0.56140000       0.57290000
   167  H          0.51410000       0.06140000       0.92710000
   168  H          0.01410000       0.56140000       0.92710000
   169  H          0.43710000       0.02440000       0.24910000
   170  H          0.93710000       0.52440000       0.24910000
   171  H          0.56290000       0.02440000       0.25090000
   172  H          0.06290000       0.52440000       0.25090000
   173  H          0.56290000       0.97560000       0.75090000
   174  H          0.06290000       0.47560000       0.75090000
   175  H          0.43710000       0.97560000       0.74910000
   176  H          0.93710000       0.47560000       0.74910000
   177  H          0.31810000       0.88860000       0.15110000
   178  H          0.81810000       0.38860000       0.15110000
   179  H          0.68190000       0.88860000       0.34890000
   180  H          0.18190000       0.38860000       0.34890000
   181  H          0.68190000       0.11140000       0.84890000
   182  H          0.18190000       0.61140000       0.84890000
   183  H          0.31810000       0.11140000       0.65110000
   184  H          0.81810000       0.61140000       0.65110000
   185  H          0.21710000       0.75160000       0.17110000
   186  H          0.71710000       0.25160000       0.17110000
   187  H          0.78290000       0.75160000       0.32890000
   188  H          0.28290000       0.25160000       0.32890000
   189  H          0.78290000       0.24840000       0.82890000
   190  H          0.28290000       0.74840000       0.82890000
   191  H          0.21710000       0.24840000       0.67110000
   192  H          0.71710000       0.74840000       0.67110000
   193  H          0.24610000       0.74360000       0.28710000
   194  H          0.74610000       0.24360000       0.28710000
   195  H          0.75390000       0.74360000       0.21290000
   196  H          0.25390000       0.24360000       0.21290000
   197  H          0.75390000       0.25640000       0.71290000
   198  H          0.25390000       0.75640000       0.71290000
   199  H          0.24610000       0.25640000       0.78710000
   200  H          0.74610000       0.75640000       0.78710000
   201  H          0.73610000       0.18640000       0.43410000
   202  H          0.23610000       0.68640000       0.43410000
   203  H          0.26390000       0.18640000       0.06590000
   204  H          0.76390000       0.68640000       0.06590000
   205  H          0.26390000       0.81360000       0.56590000
   206  H          0.76390000       0.31360000       0.56590000
   207  H          0.73610000       0.81360000       0.93410000
   208  H          0.23610000       0.31360000       0.93410000
   209  H          0.68510000       0.49140000       0.37110000
   210  H          0.18510000      -0.00860000       0.37110000
   211  H          0.31490000       0.49140000       0.12890000
   212  H          0.81490000      -0.00860000       0.12890000
   213  H          0.31490000       0.50860000       0.62890000
   214  H          0.81490000       0.00860000       0.62890000
   215  H          0.68510000       0.50860000       0.87110000
   216  H          0.18510000       0.00860000       0.87110000
   217  H          0.54610000       0.59140000       0.32210000
   218  H          0.04610000       0.09140000       0.32210000
   219  H          0.45390000       0.59140000       0.17790000
   220  H          0.95390000       0.09140000       0.17790000
   221  H          0.45390000       0.40860000       0.67790000
   222  H          0.95390000       0.90860000       0.67790000
   223  H          0.54610000       0.40860000       0.82210000
   224  H          0.04610000       0.90860000       0.82210000
   225  H          0.40410000       0.01340000       0.43810000
   226  H          0.90410000       0.51340000       0.43810000
   227  H          0.59590000       0.01340000       0.06190000
   228  H          0.09590000       0.51340000       0.06190000
   229  H          0.59590000      -0.01340000       0.56190000
   230  H          0.09590000       0.48660000       0.56190000
   231  H          0.40410000      -0.01340000       0.93810000
   232  H          0.90410000       0.48660000       0.93810000
   233  H          0.32010000       0.85560000       0.40310000
   234  H          0.82010000       0.35560000       0.40310000
   235  H          0.67990000       0.85560000       0.09690000
   236  H          0.17990000       0.35560000       0.09690000
   237  H          0.67990000       0.14440000       0.59690000
   238  H          0.17990000       0.64440000       0.59690000
   239  H          0.32010000       0.14440000       0.90310000
   240  H          0.82010000       0.64440000       0.90310000
