data_SILTOW
_symmetry_space_group_name_H-M    'P1'
_symmetry_Int_Tables_number       1
loop_
_symmetry_equiv_pos_site_id
_symmetry_equiv_pos_as_xyz
1 x,y,z
_cell_length_a                   11.4954
_cell_length_b                   13.8165
_cell_length_c                   8.3074
_cell_angle_alpha                90.0
_cell_angle_beta                 91.923
_cell_angle_gamma                90.0
loop_
_atom_site_label
_atom_site_type_symbol
_atom_site_fract_x
_atom_site_fract_y
_atom_site_fract_z
     1  C          0.73802000       0.18462000       0.04853000
     2  C          0.26198000       0.68462000       0.45147000
     3  C          0.26198000       0.81538000       0.95147000
     4  C          0.73802000       0.31538000       0.54853000
     5  O          0.69712000       0.15031000       0.16852000
     6  O          0.30288000       0.65031000       0.33148000
     7  O          0.30288000       0.84969000       0.83148000
     8  O          0.69712000       0.34969000       0.66852000
     9  N          0.80720000       0.13302000       0.94733000
    10  N          0.19280000       0.63302000       0.55267000
    11  N          0.19280000       0.86698000       0.05267000
    12  N          0.80720000       0.36698000       0.44733000
    13  C          0.83032000       0.03372000       0.94993000
    14  C          0.16968000       0.53372000       0.55007000
    15  C          0.16968000       0.96628000       0.05007000
    16  C          0.83032000       0.46628000       0.44993000
    17  C          0.90422000      -0.00272000       0.83503000
    18  C          0.09578000       0.49728000       0.66497000
    19  C          0.09578000       0.00272000       0.16497000
    20  C          0.90422000       0.50272000       0.33503000
    21  C          0.92752000       0.89988000       0.83463000
    22  C          0.07248000       0.39988000       0.66537000
    23  C          0.07248000       0.10012000       0.16537000
    24  C          0.92752000       0.60012000       0.33463000
    25  C          0.87993000       0.83498000       0.93944000
    26  C          0.12007000       0.33498000       0.56056000
    27  C          0.12007000       0.16502000       0.06056000
    28  C          0.87993000       0.66502000       0.43944000
    29  C          0.80713000       0.87238000       0.05184000
    30  C          0.19287000       0.37238000       0.44816000
    31  C          0.19287000       0.12762000       0.94816000
    32  C          0.80713000       0.62762000       0.55184000
    33  C          0.78192000       0.96978000       0.05913000
    34  C          0.21808000       0.46978000       0.44087000
    35  C          0.21808000       0.03022000       0.94087000
    36  C          0.78192000       0.53022000       0.55913000
    37  N          0.00892000       0.86198000       0.71713000
    38  N         -0.00892000       0.36198000       0.78287000
    39  N         -0.00892000       0.13802000       0.28287000
    40  N          0.00892000       0.63802000       0.21713000
    41  O          0.04492000       0.91638000       0.61623000
    42  O          0.95508000       0.41638000       0.88377000
    43  O          0.95508000       0.08362000       0.38377000
    44  O          0.04492000       0.58362000       0.11623000
    45  O          0.03852000       0.77688000       0.72753000
    46  O          0.96148000       0.27688000       0.77247000
    47  O          0.96148000       0.22312000       0.27247000
    48  O          0.03852000       0.72312000       0.22753000
    49  N          0.72212000       0.27752000       0.00273000
    50  N          0.27788000       0.77752000       0.49727000
    51  N          0.27788000       0.72248000      -0.00273000
    52  N          0.72212000       0.22248000       0.50273000
    53  C          0.65992000       0.34972000       0.08193000
    54  C          0.34008000       0.84972000       0.41807000
    55  C          0.34008000       0.65028000       0.91807000
    56  C          0.65992000       0.15028000       0.58193000
    57  C          0.68962000       0.44512000       0.05223000
    58  C          0.31038000       0.94512000       0.44777000
    59  C          0.31038000       0.55488000       0.94777000
    60  C          0.68962000       0.05488000       0.55223000
    61  C          0.63112000       0.51792000       0.12823000
    62  C          0.36888000       0.01792000       0.37177000
    63  C          0.36888000       0.48208000       0.87177000
    64  C          0.63112000       0.98208000       0.62823000
    65  C          0.54343000       0.49982000       0.23394000
    66  C          0.45657000      -0.00018000       0.26606000
    67  C          0.45657000       0.50018000       0.76606000
    68  C          0.54343000       0.00018000       0.73394000
    69  C          0.51413000       0.40462000       0.26084000
    70  C          0.48587000       0.90462000       0.23916000
    71  C          0.48587000       0.59538000       0.73916000
    72  C          0.51413000       0.09538000       0.76084000
    73  C          0.57032000       0.32992000       0.18574000
    74  C          0.42968000       0.82992000       0.31426000
    75  C          0.42968000       0.67008000       0.81426000
    76  C          0.57032000       0.17008000       0.68574000
    77  N          0.66542000       0.61722000       0.09683000
    78  N          0.33458000       0.11722000       0.40317000
    79  N          0.33458000       0.38278000       0.90317000
    80  N          0.66542000       0.88278000       0.59683000
    81  O          0.74202000       0.63252000       0.00243000
    82  O          0.25798000       0.13252000       0.49757000
    83  O          0.25798000       0.36748000      -0.00243000
    84  O          0.74202000       0.86748000       0.50243000
    85  O          0.61632000       0.68272000       0.16514000
    86  O          0.38368000       0.18272000       0.33486000
    87  O          0.38368000       0.31728000       0.83486000
    88  O          0.61632000       0.81728000       0.66514000
    89  H          0.83920000       0.16620000       0.87630000
    90  H          0.16080000       0.66620000       0.62370000
    91  H          0.16080000       0.83380000       0.12370000
    92  H          0.83920000       0.33380000       0.37630000
    93  H          0.74820000       0.29420000       0.92230000
    94  H          0.25180000       0.79420000       0.57770000
    95  H          0.25180000       0.70580000       0.07770000
    96  H          0.74820000       0.20580000       0.42230000
    97  H          0.93800000       0.03900000       0.75800000
    98  H          0.06200000       0.53900000       0.74200000
    99  H          0.06200000       0.96100000       0.24200000
   100  H          0.93800000       0.46100000       0.25800000
   101  H          0.89700000       0.76800000       0.93500000
   102  H          0.10300000       0.26800000       0.56500000
   103  H          0.10300000       0.23200000       0.06500000
   104  H          0.89700000       0.73200000       0.43500000
   105  H          0.77300000       0.83000000       0.12600000
   106  H          0.22700000       0.33000000       0.37400000
   107  H          0.22700000       0.17000000       0.87400000
   108  H          0.77300000       0.67000000       0.62600000
   109  H          0.73200000      -0.00700000       0.13900000
   110  H          0.26800000       0.49300000       0.36100000
   111  H          0.26800000       0.00700000       0.86100000
   112  H          0.73200000       0.50700000       0.63900000
   113  H          0.75000000       0.46000000       0.98000000
   114  H          0.25000000       0.96000000       0.52000000
   115  H          0.25000000       0.54000000       0.02000000
   116  H          0.75000000       0.04000000       0.48000000
   117  H          0.50500000       0.55100000       0.28600000
   118  H          0.49500000       0.05100000       0.21400000
   119  H          0.49500000       0.44900000       0.71400000
   120  H          0.50500000       0.94900000       0.78600000
   121  H          0.45400000       0.39000000       0.33300000
   122  H          0.54600000       0.89000000       0.16700000
   123  H          0.54600000       0.61000000       0.66700000
   124  H          0.45400000       0.11000000       0.83300000
   125  H          0.54800000       0.26500000       0.20500000
   126  H          0.45200000       0.76500000       0.29500000
   127  H          0.45200000       0.73500000       0.79500000
   128  H          0.54800000       0.23500000       0.70500000
