data_SILTOW01
_symmetry_space_group_name_H-M    'P1'
_symmetry_Int_Tables_number       1
loop_
_symmetry_equiv_pos_site_id
_symmetry_equiv_pos_as_xyz
1 x,y,z
_cell_length_a                   20.951
_cell_length_b                   4.7123
_cell_length_c                   6.7154
_cell_angle_alpha                90.0
_cell_angle_beta                 104.965
_cell_angle_gamma                90.0
loop_
_atom_site_label
_atom_site_type_symbol
_atom_site_fract_x
_atom_site_fract_y
_atom_site_fract_z
     1  C          0.50000000       0.95490000       0.50000000
     2  C         -0.00000000       0.45490000       0.50000000
     3  C          0.59622000       0.01958000       0.35785000
     4  C          0.40378000       0.01958000       0.64215000
     5  C          0.09622000       0.51958000       0.35785000
     6  C          0.90378000       0.51958000       0.64215000
     7  C          0.58292000       0.80541000       0.20715000
     8  C          0.41708000       0.80541000       0.79285000
     9  C          0.08292000       0.30541000       0.20715000
    10  C          0.91708000       0.30541000       0.79285000
    11  C          0.63052000       0.74990000       0.10485000
    12  C          0.36948000       0.74990000       0.89515000
    13  C          0.13052000       0.24990000       0.10485000
    14  C          0.86948000       0.24990000       0.89515000
    15  C          0.69082000       0.88761000       0.14365000
    16  C          0.30918000       0.88761000       0.85635000
    17  C          0.19082000       0.38761000       0.14365000
    18  C          0.80918000       0.38761000       0.85635000
    19  C          0.70372000       0.09110000       0.29745000
    20  C          0.29628000       0.09110000       0.70255000
    21  C          0.20372000       0.59110000       0.29745000
    22  C          0.79628000       0.59110000       0.70255000
    23  C          0.65732000       0.15710000       0.40225000
    24  C          0.34268000       0.15710000       0.59775000
    25  C          0.15732000       0.65710000       0.40225000
    26  C          0.84268000       0.65710000       0.59775000
    27  N          0.54871000       0.11248000       0.45484000
    28  N          0.45129000       0.11248000       0.54516000
    29  N          0.04871000       0.61248000       0.45484000
    30  N          0.95129000       0.61248000       0.54516000
    31  N          0.61521000       0.53511000       0.93936000
    32  N          0.38479000       0.53511000       0.06064000
    33  N          0.11521000       0.03511000       0.93936000
    34  N          0.88479000       0.03511000       0.06064000
    35  O          0.50000000       0.69310000       0.50000000
    36  O         -0.00000000       0.19310000       0.50000000
    37  O          0.56551000       0.39292000       0.91886000
    38  O          0.43449000       0.39292000       0.08114000
    39  O          0.06551000       0.89292000       0.91886000
    40  O          0.93449000       0.89292000       0.08114000
    41  O          0.65392000       0.51090000       0.83216000
    42  O          0.34608000       0.51090000       0.16784000
    43  O          0.15392000       0.01090000       0.83216000
    44  O          0.84608000       0.01090000       0.16784000
    45  H          0.55120000       0.29100000       0.49550000
    46  H          0.44880000       0.29100000       0.50450000
    47  H          0.05120000       0.79100000       0.49550000
    48  H          0.94880000       0.79100000       0.50450000
    49  H          0.54260000       0.70270000       0.17700000
    50  H          0.45740000       0.70270000       0.82300000
    51  H          0.04260000       0.20270000       0.17700000
    52  H          0.95740000       0.20270000       0.82300000
    53  H          0.72210000       0.84430000       0.06780000
    54  H          0.27790000       0.84430000       0.93220000
    55  H          0.22210000       0.34430000       0.06780000
    56  H          0.77790000       0.34430000       0.93220000
    57  H          0.74510000       0.18560000       0.33120000
    58  H          0.25490000       0.18560000       0.66880000
    59  H          0.24510000       0.68560000       0.33120000
    60  H          0.75490000       0.68560000       0.66880000
    61  H          0.66700000       0.29800000       0.50650000
    62  H          0.33300000       0.29800000       0.49350000
    63  H          0.16700000       0.79800000       0.50650000
    64  H          0.83300000       0.79800000       0.49350000
