data_SILTOW11
_symmetry_space_group_name_H-M    'P1'
_symmetry_Int_Tables_number       1
loop_
_symmetry_equiv_pos_site_id
_symmetry_equiv_pos_as_xyz
1 x,y,z
_cell_length_a                   4.68683
_cell_length_b                   18.426812
_cell_length_c                   14.72019
_cell_angle_alpha                90.0
_cell_angle_beta                 90.50001
_cell_angle_gamma                90.0
loop_
_atom_site_label
_atom_site_type_symbol
_atom_site_fract_x
_atom_site_fract_y
_atom_site_fract_z
     1  O          0.30612000       0.32415500       0.81933700
     2  O          0.69388000       0.82415500       0.68066300
     3  O          0.69388000       0.67584500       0.18066300
     4  O          0.30612000       0.17584500       0.31933700
     5  O          0.15712000       0.42918600       0.86502700
     6  O          0.84288000       0.92918600       0.63497300
     7  O          0.84288000       0.57081400       0.13497300
     8  O          0.15712000       0.07081400       0.36502700
     9  O          0.77007160       0.64534400       0.54582600
    10  O          0.22992840       0.14534400       0.95417400
    11  O          0.22992840       0.35465600       0.45417400
    12  O          0.77007160       0.85465600       0.04582600
    13  O          0.04627190       0.77301500       0.30087600
    14  O          0.95372810       0.27301500       0.19912400
    15  O          0.95372810       0.22698500       0.69912400
    16  O          0.04627190       0.72698500       0.80087600
    17  O          0.90482190       0.87869500       0.25531600
    18  O          0.09517810       0.37869500       0.24468400
    19  O          0.09517810       0.12130500       0.74468400
    20  O          0.90482190       0.62130500       0.75531600
    21  N          0.37762000       0.59696500       0.61554700
    22  N          0.62238000       0.09696500       0.88445300
    23  N          0.62238000       0.40303500       0.38445300
    24  N          0.37762000       0.90303500       0.11554700
    25  H          0.21140000       0.60831000       0.63701200
    26  H          0.78860000       0.10831000       0.86298800
    27  H          0.78860000       0.39169000       0.36298800
    28  H          0.21140000       0.89169000       0.13701200
    29  N          0.29062000       0.39033600       0.81240700
    30  N          0.70938000       0.89033600       0.68759300
    31  N          0.70938000       0.60966400       0.18759300
    32  N          0.29062000       0.10966400       0.31240700
    33  N          0.34402000       0.70635500       0.54510700
    34  N          0.65598000       0.20635500       0.95489300
    35  N          0.65598000       0.29364500       0.45489300
    36  N          0.34402000       0.79364500       0.04510700
    37  H          0.16840000       0.70331100       0.55941300
    38  H          0.83160000       0.20331100       0.94058700
    39  H          0.83160000       0.29668900       0.44058700
    40  H          0.16840000       0.79668900       0.05941300
    41  N          0.89362000       0.82650500       0.30746600
    42  N          0.10638000       0.32650500       0.19253400
    43  N          0.10638000       0.17349500       0.69253400
    44  N          0.89362000       0.67349500       0.80746600
    45  C          0.48572000       0.52914600       0.64099700
    46  C          0.51428000       0.02914600       0.85900300
    47  C          0.51428000       0.47085400       0.35900300
    48  C          0.48572000       0.97085400       0.14099700
    49  C          0.35422000       0.49464600       0.71402700
    50  C          0.64578000      -0.00535400       0.78597300
    51  C          0.64578000       0.50535400       0.28597300
    52  C          0.35422000       0.00535400       0.21402700
    53  C          0.43892000       0.42540600       0.73678700
    54  C          0.56108000       0.92540600       0.76321300
    55  C          0.56108000       0.57459400       0.26321300
    56  C          0.43892000       0.07459400       0.23678700
    57  C          0.65113000       0.38775600       0.69192800
    58  C          0.34887000       0.88775600       0.80807200
    59  C          0.34887000       0.61224400       0.30807200
    60  C          0.65113000       0.11224400       0.19192800
    61  C          0.78302000       0.42334600       0.62051800
    62  C          0.21698000       0.92334600       0.87948200
    63  C          0.21698000       0.57665400       0.37948200
    64  C          0.78302000       0.07665400       0.12051800
    65  C          0.70222000       0.49307600       0.59455700
    66  C          0.29778000      -0.00692400       0.90544300
    67  C          0.29778000       0.50692400       0.40544300
    68  C          0.70222000       0.00692400       0.09455700
    69  H          0.79260000       0.51570000       0.54620000
    70  H          0.20740000       0.01570000       0.95380000
    71  H          0.20740000       0.48430000       0.45380000
    72  H          0.79260000       0.98430000       0.04620000
    73  C          0.51732000       0.64931600       0.56684700
    74  C          0.48268000       0.14931600       0.93315300
    75  C          0.48268000       0.35068400       0.43315300
    76  C          0.51732000       0.85068400       0.06684700
    77  C          0.42472000       0.76804600       0.49572700
    78  C          0.57528000       0.26804600       0.00427300
    79  C          0.57528000       0.23195400       0.50427300
    80  C          0.42472000       0.73195400      -0.00427300
    81  C          0.63042000       0.76583600       0.42796700
    82  C          0.36958000       0.26583600       0.07203300
    83  C          0.36958000       0.23416400       0.57203300
    84  C          0.63042000       0.73416400       0.92796700
    85  H          0.72800000       0.72320000       0.41490000
    86  H          0.27200000       0.22320000       0.08510000
    87  H          0.27200000       0.27680000       0.58510000
    88  H          0.72800000       0.77680000       0.91490000
    89  C          0.68422000       0.82942600       0.38082700
    90  C          0.31578000       0.32942600       0.11917300
    91  C          0.31578000       0.17057400       0.61917300
    92  C          0.68422000       0.67057400       0.88082700
    93  C          0.54862000       0.89473600       0.39793800
    94  C          0.45138000       0.39473600       0.10206200
    95  C          0.45138000       0.10526400       0.60206200
    96  C          0.54862000       0.60526400       0.89793800
    97  H          0.59300000       0.93650000       0.36540000
    98  H          0.40700000       0.43650000       0.13460000
    99  H          0.40700000       0.06350000       0.63460000
   100  H          0.59300000       0.56350000       0.86540000
   101  C          0.34392000       0.89548600       0.46543800
   102  C          0.65608000       0.39548600       0.03456200
   103  C          0.65608000       0.10451400       0.53456200
   104  C          0.34392000       0.60451400       0.96543800
   105  H          0.24780000       0.93840000       0.47850000
   106  H          0.75220000       0.43840000       0.02150000
   107  H          0.75220000       0.06160000       0.52150000
   108  H          0.24780000       0.56160000       0.97850000
   109  C          0.28102000       0.83294600       0.51369800
   110  C          0.71898000       0.33294600       0.98630200
   111  C          0.71898000       0.16705400       0.48630200
   112  C          0.28102000       0.66705400       0.01369800
   113  H          0.14210000       0.83420000       0.55840000
   114  H          0.85790000       0.33420000       0.94160000
   115  H          0.85790000       0.16580000       0.44160000
   116  H          0.14210000       0.66580000       0.05840000
   117  H          0.20840000       0.51839000       0.74841100
   118  H          0.79160000       0.01839000       0.75158900
   119  H          0.79160000       0.48161000       0.25158900
   120  H          0.20840000       0.98161000       0.24841100
   121  H          0.92740000       0.39899000       0.58891100
   122  H          0.07260000       0.89899000       0.91108900
   123  H          0.07260000       0.60101000       0.41108900
   124  H          0.92740000       0.10101000       0.08891100
   125  H          0.70540000       0.34071000       0.71181200
   126  H          0.29460000       0.84071000       0.78818800
   127  H          0.29460000       0.65929000       0.28818800
   128  H          0.70540000       0.15929000       0.21181200
