data_SLFNMB06
_symmetry_space_group_name_H-M    'P1'
_symmetry_Int_Tables_number       1
loop_
_symmetry_equiv_pos_site_id
_symmetry_equiv_pos_as_xyz
1 x,y,z
_cell_length_a                   5.48959
_cell_length_b                   16.7613
_cell_length_c                   12.4222
_cell_angle_alpha                90.0
_cell_angle_beta                 97.0802
_cell_angle_gamma                90.0
loop_
_atom_site_label
_atom_site_type_symbol
_atom_site_fract_x
_atom_site_fract_y
_atom_site_fract_z
     1  S          0.22646700       0.42204200       0.88234300
     2  S          0.27353300       0.92204200       0.61765700
     3  S          0.77353300       0.57795800       0.11765700
     4  S          0.72646700       0.07795800       0.38234300
     5  O          0.45122000       0.46498700       0.87865900
     6  O          0.04878000       0.96498700       0.62134100
     7  O          0.54878000       0.53501300       0.12134100
     8  O          0.95122000       0.03501300       0.37865900
     9  O          0.15872000       0.39713700       0.98527900
    10  O          0.34128000       0.89713700       0.51472100
    11  O          0.84128000       0.60286300       0.01472100
    12  O          0.65872000       0.10286300       0.48527900
    13  O          0.82378000       0.58894900       0.59928120
    14  O          0.67622000       0.08894900       0.90071880
    15  O          0.17622000       0.41105100       0.40071880
    16  O          0.32378000       0.91105100       0.09928120
    17  N          0.20323000       0.14933900       0.58329130
    18  N          0.29677000       0.64933900       0.91670870
    19  N          0.79677000       0.85066100       0.41670870
    20  N          0.70323000       0.35066100       0.08329130
    21  N         -0.00043000       0.48063800       0.83458110
    22  N          0.50043000       0.98063800       0.66541890
    23  N          0.00043000       0.51936200       0.16541890
    24  N          0.49957000       0.01936200       0.33458110
    25  N          0.77477000       0.54783110       0.69321140
    26  N          0.72523000       0.04783110       0.80678860
    27  N          0.22523000       0.45216890       0.30678860
    28  N          0.27477000       0.95216890       0.19321140
    29  C          0.21273000       0.21112900       0.65427130
    30  C          0.28727000       0.71112900       0.84572870
    31  C          0.78727000       0.78887100       0.34572870
    32  C          0.71273000       0.28887100       0.15427130
    33  C          0.39563000       0.26935100       0.65554130
    34  C          0.10437000       0.76935100       0.84445870
    35  C          0.60437000       0.73064900       0.34445870
    36  C          0.89563000       0.23064900       0.15554130
    37  H          0.51750000       0.26440000       0.60790000
    38  H         -0.01750000       0.76440000       0.89210000
    39  H          0.48250000       0.73560000       0.39210000
    40  H          0.01750000       0.23560000       0.10790000
    41  C          0.40163000       0.33380100       0.72483130
    42  C          0.09837000       0.83380100       0.77516870
    43  C          0.59837000       0.66619900       0.27516870
    44  C          0.90163000       0.16619900       0.22483130
    45  H          0.52590000       0.37320000       0.72430000
    46  H         -0.02590000       0.87320000       0.77570000
    47  H          0.47410000       0.62680000       0.27570000
    48  H          0.02590000       0.12680000       0.22430000
    49  C          0.22483000       0.34085900       0.79558120
    50  C          0.27517000       0.84085900       0.70441880
    51  C          0.77517000       0.65914100       0.20441880
    52  C          0.72483000       0.15914100       0.29558120
    53  C          0.04133000       0.28321100       0.79587130
    54  C          0.45867000       0.78321100       0.70412870
    55  C          0.95867000       0.71678900       0.20412870
    56  C          0.54133000       0.21678900       0.29587130
    57  H          0.92090000       0.28810000       0.84430000
    58  H          0.57910000       0.78810000       0.65570000
    59  H          0.07910000       0.71190000       0.15570000
    60  H          0.42090000       0.21190000       0.34430000
    61  C          0.03473000       0.21933900       0.72604140
    62  C          0.46527000       0.71933900       0.77395860
    63  C          0.96527000       0.78066100       0.27395860
    64  C          0.53473000       0.28066100       0.22604140
    65  H          0.90900000       0.18040000       0.72620000
    66  H          0.59100000       0.68040000       0.77380000
    67  H          0.09100000       0.81960000       0.27380000
    68  H          0.40900000       0.31960000       0.22620000
    69  C         -0.01243000       0.52138900       0.73625130
    70  C          0.51243000       0.02138900       0.76374870
    71  C          0.01243000       0.47861100       0.26374870
    72  C          0.48757000       0.97861100       0.23625130
    73  C          0.17883000       0.54146100       0.67496140
    74  C          0.32117000       0.04146100       0.82503860
    75  C          0.82117000       0.45853900       0.32503860
    76  C          0.67883000       0.95853900       0.17496140
    77  H          0.34790000       0.52810000       0.68940000
    78  H          0.15210000       0.02810000       0.81060000
    79  H          0.65210000       0.47190000       0.31060000
    80  H          0.84790000       0.97190000       0.18940000
    81  C          0.06653000       0.58368100       0.59165140
    82  C          0.43347000       0.08368100       0.90834860
    83  C          0.93347000       0.41631900       0.40834860
    84  C          0.56653000       0.91631900       0.09165140
    85  C          0.15623000       0.62618120       0.49968150
    86  C          0.34377000       0.12618120       0.00031850
    87  C          0.84377000       0.37381880       0.50031850
    88  C          0.65623000       0.87381880      -0.00031850
    89  H          0.32970000       0.61340000       0.49750000
    90  H          0.17030000       0.11340000       0.00250000
    91  H          0.67030000       0.38660000       0.50250000
    92  H          0.82970000       0.88660000      -0.00250000
    93  H          0.13790000       0.68380000       0.50910000
    94  H          0.36210000       0.18380000      -0.00910000
    95  H          0.86210000       0.31620000       0.49090000
    96  H          0.63790000       0.81620000       0.00910000
    97  H          0.06040000       0.60940000       0.43160000
    98  H          0.43960000       0.10940000       0.06840000
    99  H          0.93960000       0.39060000       0.56840000
   100  H          0.56040000       0.89060000       0.93160000
   101  H          0.87460000       0.47511200       0.86211600
   102  H          0.62540000       0.97511200       0.63788400
   103  H          0.12540000       0.52488800       0.13788400
   104  H          0.37460000       0.02488800       0.36211600
   105  H          0.33740000       0.13781200       0.55281700
   106  H          0.16260000       0.63781200       0.94718300
   107  H          0.66260000       0.86218800       0.44718300
   108  H          0.83740000       0.36218800       0.05281700
   109  H          0.10140000       0.11271300       0.59021700
   110  H          0.39860000       0.61271300       0.90978300
   111  H          0.89860000       0.88728700       0.40978300
   112  H          0.60140000       0.38728700       0.09021700
