data_SLFNMB01
_symmetry_space_group_name_H-M    'P1'
_symmetry_Int_Tables_number       1
loop_
_symmetry_equiv_pos_site_id
_symmetry_equiv_pos_as_xyz
1 x,y,z
_cell_length_a                   16.0622
_cell_length_b                   5.4791
_cell_length_c                   25.7573
_cell_angle_alpha                90.0
_cell_angle_beta                 96.122
_cell_angle_gamma                90.0
loop_
_atom_site_label
_atom_site_type_symbol
_atom_site_fract_x
_atom_site_fract_y
_atom_site_fract_z
     1  S          0.05340000       0.89080000       0.13810000
     2  S          0.55340000       0.39080000       0.13810000
     3  S          0.94660000       0.89080000       0.36190000
     4  S          0.44660000       0.39080000       0.36190000
     5  S          0.94660000       0.10920000       0.86190000
     6  S          0.44660000       0.60920000       0.86190000
     7  S          0.05340000       0.10920000       0.63810000
     8  S          0.55340000       0.60920000       0.63810000
     9  O          0.03740000       0.13560000       0.11960000
    10  O          0.53740000       0.63560000       0.11960000
    11  O          0.96260000       0.13560000       0.38040000
    12  O          0.46260000       0.63560000       0.38040000
    13  O          0.96260000       0.86440000       0.88040000
    14  O          0.46260000       0.36440000       0.88040000
    15  O          0.03740000       0.86440000       0.61960000
    16  O          0.53740000       0.36440000       0.61960000
    17  O          0.00440000       0.79210000       0.17630000
    18  O          0.50440000       0.29210000       0.17630000
    19  O         -0.00440000       0.79210000       0.32370000
    20  O          0.49560000       0.29210000       0.32370000
    21  O         -0.00440000       0.20790000       0.82370000
    22  O          0.49560000       0.70790000       0.82370000
    23  O          0.00440000       0.20790000       0.67630000
    24  O          0.50440000       0.70790000       0.67630000
    25  O          0.14050000       0.61780000       0.97810000
    26  O          0.64050000       0.11780000       0.97810000
    27  O          0.85950000       0.61780000       0.52190000
    28  O          0.35950000       0.11780000       0.52190000
    29  O          0.85950000       0.38220000       0.02190000
    30  O          0.35950000       0.88220000       0.02190000
    31  O          0.14050000       0.38220000       0.47810000
    32  O          0.64050000       0.88220000       0.47810000
    33  N          0.41180000       0.79590000       0.21300000
    34  N          0.91180000       0.29590000       0.21300000
    35  N          0.58820000       0.79590000       0.28700000
    36  N          0.08820000       0.29590000       0.28700000
    37  N          0.58820000       0.20410000       0.78700000
    38  N          0.08820000       0.70410000       0.78700000
    39  N          0.41180000       0.20410000       0.71300000
    40  N          0.91180000       0.70410000       0.71300000
    41  N          0.03430000       0.70750000       0.08750000
    42  N          0.53430000       0.20750000       0.08750000
    43  N          0.96570000       0.70750000       0.41250000
    44  N          0.46570000       0.20750000       0.41250000
    45  N          0.96570000       0.29250000       0.91250000
    46  N          0.46570000       0.79250000       0.91250000
    47  N          0.03430000       0.29250000       0.58750000
    48  N          0.53430000       0.79250000       0.58750000
    49  N          0.10150000       0.53450000       0.02140000
    50  N          0.60150000       0.03450000       0.02140000
    51  N          0.89850000       0.53450000       0.47860000
    52  N          0.39850000       0.03450000       0.47860000
    53  N          0.89850000       0.46550000       0.97860000
    54  N          0.39850000       0.96550000       0.97860000
    55  N          0.10150000       0.46550000       0.52140000
    56  N          0.60150000       0.96550000       0.52140000
    57  C          0.32860000       0.81570000       0.19400000
    58  C          0.82860000       0.31570000       0.19400000
    59  C          0.67140000       0.81570000       0.30600000
    60  C          0.17140000       0.31570000       0.30600000
    61  C          0.67140000       0.18430000       0.80600000
    62  C          0.17140000       0.68430000       0.80600000
    63  C          0.32860000       0.18430000       0.69400000
    64  C          0.82860000       0.68430000       0.69400000
    65  C          0.29930000       0.01800000       0.16470000
    66  C          0.79930000       0.51800000       0.16470000
    67  C          0.70070000       0.01800000       0.33530000
    68  C          0.20070000       0.51800000       0.33530000
    69  C          0.70070000      -0.01800000       0.83530000
    70  C          0.20070000       0.48200000       0.83530000
    71  C          0.29930000      -0.01800000       0.66470000
    72  C          0.79930000       0.48200000       0.66470000
    73  C          0.21600000       0.04150000       0.14790000
    74  C          0.71600000       0.54150000       0.14790000
    75  C          0.78400000       0.04150000       0.35210000
    76  C          0.28400000       0.54150000       0.35210000
    77  C          0.78400000       0.95850000       0.85210000
    78  C          0.28400000       0.45850000       0.85210000
    79  C          0.21600000       0.95850000       0.64790000
    80  C          0.71600000       0.45850000       0.64790000
    81  C          0.15940000       0.86570000       0.15990000
    82  C          0.65940000       0.36570000       0.15990000
    83  C          0.84060000       0.86570000       0.34010000
    84  C          0.34060000       0.36570000       0.34010000
    85  C          0.84060000       0.13430000       0.84010000
    86  C          0.34060000       0.63430000       0.84010000
    87  C          0.15940000       0.13430000       0.65990000
    88  C          0.65940000       0.63430000       0.65990000
    89  C          0.18800000       0.66150000       0.18870000
    90  C          0.68800000       0.16150000       0.18870000
    91  C          0.81200000       0.66150000       0.31130000
    92  C          0.31200000       0.16150000       0.31130000
    93  C          0.81200000       0.33850000       0.81130000
    94  C          0.31200000       0.83850000       0.81130000
    95  C          0.18800000       0.33850000       0.68870000
    96  C          0.68800000       0.83850000       0.68870000
    97  C          0.27150000       0.63740000       0.20540000
    98  C          0.77150000       0.13740000       0.20540000
    99  C          0.72850000       0.63740000       0.29460000
   100  C          0.22850000       0.13740000       0.29460000
   101  C          0.72850000       0.36260000       0.79460000
   102  C          0.22850000       0.86260000       0.79460000
   103  C          0.27150000       0.36260000       0.70540000
   104  C          0.77150000       0.86260000       0.70540000
   105  C          0.07940000       0.73110000       0.04410000
   106  C          0.57940000       0.23110000       0.04410000
   107  C          0.92060000       0.73110000       0.45590000
   108  C          0.42060000       0.23110000       0.45590000
   109  C          0.92060000       0.26890000       0.95590000
   110  C          0.42060000       0.76890000       0.95590000
   111  C          0.07940000       0.26890000       0.54410000
   112  C          0.57940000       0.76890000       0.54410000
   113  C          0.10280000       0.94340000       0.01910000
   114  C          0.60280000       0.44340000       0.01910000
   115  C          0.89720000       0.94340000       0.48090000
   116  C          0.39720000       0.44340000       0.48090000
   117  C          0.89720000       0.05660000       0.98090000
   118  C          0.39720000       0.55660000       0.98090000
   119  C          0.10280000       0.05660000       0.51910000
   120  C          0.60280000       0.55660000       0.51910000
   121  C          0.14080000       0.86440000       0.97870000
   122  C          0.64080000       0.36440000       0.97870000
   123  C          0.85920000       0.86440000       0.52130000
   124  C          0.35920000       0.36440000       0.52130000
   125  C          0.85920000       0.13560000       0.02130000
   126  C          0.35920000       0.63560000       0.02130000
   127  C          0.14080000       0.13560000       0.47870000
   128  C          0.64080000       0.63560000       0.47870000
   129  C          0.17880000      -0.01370000       0.93600000
   130  C          0.67880000       0.48630000       0.93600000
   131  C          0.82120000      -0.01370000       0.56400000
   132  C          0.32120000       0.48630000       0.56400000
   133  C          0.82120000       0.01370000       0.06400000
   134  C          0.32120000       0.51370000       0.06400000
   135  C          0.17880000       0.01370000       0.43600000
   136  C          0.67880000       0.51370000       0.43600000
   137  H          0.43100000       0.65800000       0.22000000
   138  H          0.93100000       0.15800000       0.22000000
   139  H          0.56900000       0.65800000       0.28000000
   140  H          0.06900000       0.15800000       0.28000000
   141  H          0.56900000       0.34200000       0.78000000
   142  H          0.06900000       0.84200000       0.78000000
   143  H          0.43100000       0.34200000       0.72000000
   144  H          0.93100000       0.84200000       0.72000000
   145  H          0.44900000       0.88500000       0.20100000
   146  H          0.94900000       0.38500000       0.20100000
   147  H          0.55100000       0.88500000       0.29900000
   148  H          0.05100000       0.38500000       0.29900000
   149  H          0.55100000       0.11500000       0.79900000
   150  H          0.05100000       0.61500000       0.79900000
   151  H          0.44900000       0.11500000       0.70100000
   152  H          0.94900000       0.61500000       0.70100000
   153  H          0.04100000       0.56000000       0.09800000
   154  H          0.54100000       0.06000000       0.09800000
   155  H          0.95900000       0.56000000       0.40200000
   156  H          0.45900000       0.06000000       0.40200000
   157  H          0.95900000       0.44000000       0.90200000
   158  H          0.45900000       0.94000000       0.90200000
   159  H          0.04100000       0.44000000       0.59800000
   160  H          0.54100000       0.94000000       0.59800000
   161  H          0.33800000       0.13200000       0.15700000
   162  H          0.83800000       0.63200000       0.15700000
   163  H          0.66200000       0.13200000       0.34300000
   164  H          0.16200000       0.63200000       0.34300000
   165  H          0.66200000       0.86800000       0.84300000
   166  H          0.16200000       0.36800000       0.84300000
   167  H          0.33800000       0.86800000       0.65700000
   168  H          0.83800000       0.36800000       0.65700000
   169  H          0.19600000       0.16800000       0.13100000
   170  H          0.69600000       0.66800000       0.13100000
   171  H          0.80400000       0.16800000       0.36900000
   172  H          0.30400000       0.66800000       0.36900000
   173  H          0.80400000       0.83200000       0.86900000
   174  H          0.30400000       0.33200000       0.86900000
   175  H          0.19600000       0.83200000       0.63100000
   176  H          0.69600000       0.33200000       0.63100000
   177  H          0.14900000       0.54800000       0.19700000
   178  H          0.64900000       0.04800000       0.19700000
   179  H          0.85100000       0.54800000       0.30300000
   180  H          0.35100000       0.04800000       0.30300000
   181  H          0.85100000       0.45200000       0.80300000
   182  H          0.35100000       0.95200000       0.80300000
   183  H          0.14900000       0.45200000       0.69700000
   184  H          0.64900000       0.95200000       0.69700000
   185  H          0.29100000       0.50300000       0.22600000
   186  H          0.79100000       0.00300000       0.22600000
   187  H          0.70900000       0.50300000       0.27400000
   188  H          0.20900000       0.00300000       0.27400000
   189  H          0.70900000       0.49700000       0.77400000
   190  H          0.20900000      -0.00300000       0.77400000
   191  H          0.29100000       0.49700000       0.72600000
   192  H          0.79100000      -0.00300000       0.72600000
   193  H          0.09500000       0.09500000       0.02900000
   194  H          0.59500000       0.59500000       0.02900000
   195  H          0.90500000       0.09500000       0.47100000
   196  H          0.40500000       0.59500000       0.47100000
   197  H          0.90500000       0.90500000       0.97100000
   198  H          0.40500000       0.40500000       0.97100000
   199  H          0.09500000       0.90500000       0.52900000
   200  H          0.59500000       0.40500000       0.52900000
   201  H          0.22900000       0.93400000       0.93400000
   202  H          0.72900000       0.43400000       0.93400000
   203  H          0.77100000       0.93400000       0.56600000
   204  H          0.27100000       0.43400000       0.56600000
   205  H          0.77100000       0.06600000       0.06600000
   206  H          0.27100000       0.56600000       0.06600000
   207  H          0.22900000       0.06600000       0.43400000
   208  H          0.72900000       0.56600000       0.43400000
   209  H          0.15200000       0.95800000       0.90500000
   210  H          0.65200000       0.45800000       0.90500000
   211  H          0.84800000       0.95800000       0.59500000
   212  H          0.34800000       0.45800000       0.59500000
   213  H          0.84800000       0.04200000       0.09500000
   214  H          0.34800000       0.54200000       0.09500000
   215  H          0.15200000       0.04200000       0.40500000
   216  H          0.65200000       0.54200000       0.40500000
   217  H          0.18000000       0.16100000       0.94100000
   218  H          0.68000000       0.66100000       0.94100000
   219  H          0.82000000       0.16100000       0.55900000
   220  H          0.32000000       0.66100000       0.55900000
   221  H          0.82000000       0.83900000       0.05900000
   222  H          0.32000000       0.33900000       0.05900000
   223  H          0.18000000       0.83900000       0.44100000
   224  H          0.68000000       0.33900000       0.44100000
