data_SLFNMA03
_symmetry_space_group_name_H-M    'P1'
_symmetry_Int_Tables_number       1
loop_
_symmetry_equiv_pos_site_id
_symmetry_equiv_pos_as_xyz
1 x,y,z
_cell_length_a                   11.09665
_cell_length_b                   8.31525
_cell_length_c                   13.96407
_cell_angle_alpha                90.0
_cell_angle_beta                 99.3274
_cell_angle_gamma                90.0
loop_
_atom_site_label
_atom_site_type_symbol
_atom_site_fract_x
_atom_site_fract_y
_atom_site_fract_z
     1  S          0.19021500       0.01361700       0.50270400
     2  S          0.80978500       0.51361700      -0.00270400
     3  S          0.80978500      -0.01361700       0.49729600
     4  S          0.19021500       0.48638300       0.00270400
     5  O          0.17220140      -0.00522000       0.39886110
     6  O          0.82779860       0.49478000       0.10113890
     7  O          0.82779860       0.00522000       0.60113890
     8  O          0.17220140       0.50522000       0.89886110
     9  O          0.13096150       0.14302000       0.54387120
    10  O          0.86903850       0.64302000       0.95612880
    11  O          0.86903850       0.85698000       0.45612880
    12  O          0.13096150       0.35698000       0.04387120
    13  N          0.33972170       0.03792000       0.52968140
    14  N          0.66027830       0.53792000       0.97031860
    15  N          0.66027830       0.96208000       0.47031860
    16  N          0.33972170       0.46208000       0.02968140
    17  H          0.38110000       0.03690000       0.48100000
    18  H          0.61890000       0.53690000       0.01900000
    19  H          0.61890000       0.96310000       0.51900000
    20  H          0.38110000       0.46310000       0.98100000
    21  N          0.34604180       0.07933000       0.69574140
    22  N          0.65395820       0.57933000       0.80425860
    23  N          0.65395820       0.92067000       0.30425860
    24  N          0.34604180       0.42067000       0.19574140
    25  N          0.52733190       0.05763000       0.62466150
    26  N          0.47266810       0.55763000       0.87533850
    27  N          0.47266810       0.94237000       0.37533850
    28  N          0.52733190       0.44237000       0.12466150
    29  N          0.09372000       0.39927000       0.68583150
    30  N          0.90628000       0.89927000       0.81416850
    31  N          0.90628000       0.60073000       0.31416850
    32  N          0.09372000       0.10073000       0.18583150
    33  H          0.07270000       0.39870000       0.74400000
    34  H          0.92730000       0.89870000       0.75600000
    35  H          0.92730000       0.60130000       0.25600000
    36  H          0.07270000       0.10130000       0.24400000
    37  H          0.10190000       0.30800000       0.65570000
    38  H          0.89810000       0.80800000       0.84430000
    39  H          0.89810000       0.69200000       0.34430000
    40  H          0.10190000       0.19200000       0.15570000
    41  C          0.40632000       0.05973000       0.62188170
    42  C          0.59368000       0.55973000       0.87811830
    43  C          0.59368000       0.94027000       0.37811830
    44  C          0.40632000       0.44027000       0.12188170
    45  C          0.41462000       0.10243000       0.78327180
    46  C          0.58538000       0.60243000       0.71672820
    47  C          0.58538000       0.89757000       0.21672820
    48  C          0.41462000       0.39757000       0.28327180
    49  C          0.53993000       0.10575000       0.79402000
    50  C          0.46007000       0.60575000       0.70598000
    51  C          0.46007000       0.89425000       0.20598000
    52  C          0.53993000       0.39425000       0.29402000
    53  H          0.58850000       0.12360000       0.85560000
    54  H          0.41150000       0.62360000       0.64440000
    55  H          0.41150000       0.87640000       0.14440000
    56  H          0.58850000       0.37640000       0.35560000
    57  C          0.59253000       0.08235000       0.71262000
    58  C          0.40747000       0.58235000       0.78738000
    59  C          0.40747000       0.91765000       0.28738000
    60  C          0.59253000       0.41765000       0.21262000
    61  H          0.67910000       0.08360000       0.71910000
    62  H          0.32090000       0.58360000       0.78090000
    63  H          0.32090000       0.91640000       0.28090000
    64  H          0.67910000       0.41640000       0.21910000
    65  C          0.15662190       0.83367000       0.55534150
    66  C          0.84337810       0.33367000       0.94465850
    67  C          0.84337810       0.16633000       0.44465850
    68  C          0.15662190       0.66633000       0.05534150
    69  C          0.16622000       0.69007000       0.50627160
    70  C          0.83378000       0.19007000      -0.00627160
    71  C          0.83378000       0.30993000       0.49372840
    72  C          0.16622000       0.80993000       0.00627160
    73  H          0.18770000       0.69170000       0.44320000
    74  H          0.81230000       0.19170000       0.05680000
    75  H          0.81230000       0.30830000       0.55680000
    76  H          0.18770000       0.80830000       0.94320000
    77  C          0.14462000       0.54517000       0.54875160
    78  C          0.85538000       0.04517000       0.95124840
    79  C          0.85538000       0.45483000       0.45124840
    80  C          0.14462000       0.95483000       0.04875160
    81  H          0.15080000       0.44750000       0.51460000
    82  H          0.84920000       0.94750000       0.98540000
    83  H          0.84920000       0.55250000       0.48540000
    84  H          0.15080000       0.05250000       0.01460000
    85  C          0.11342000       0.54167000       0.64244160
    86  C          0.88658000       0.04167000       0.85755840
    87  C          0.88658000       0.45833000       0.35755840
    88  C          0.11342000       0.95833000       0.14244160
    89  C          0.10062000       0.68797000       0.68991160
    90  C          0.89938000       0.18797000       0.81008840
    91  C          0.89938000       0.31203000       0.31008840
    92  C          0.10062000       0.81203000       0.18991160
    93  H          0.07670000       0.68740000       0.75220000
    94  H          0.92330000       0.18740000       0.74780000
    95  H          0.92330000       0.31260000       0.24780000
    96  H          0.07670000       0.81260000       0.25220000
    97  C          0.12212000       0.83237000       0.64734160
    98  C          0.87788000       0.33237000       0.85265840
    99  C          0.87788000       0.16763000       0.35265840
   100  C          0.12212000       0.66763000       0.14734160
   101  H          0.11360000       0.93060000       0.68030000
   102  H          0.88640000       0.43060000       0.81970000
   103  H          0.88640000       0.06940000       0.31970000
   104  H          0.11360000       0.56940000       0.18030000
   105  C          0.34603000       0.12154000       0.86672000
   106  C          0.65397000       0.62154000       0.63328000
   107  C          0.65397000       0.87846000       0.13328000
   108  C          0.34603000       0.37846000       0.36672000
   109  H          0.29520000       0.21840000       0.85710000
   110  H          0.70480000       0.71840000       0.64290000
   111  H          0.70480000       0.78160000       0.14290000
   112  H          0.29520000       0.28160000       0.35710000
   113  H          0.40410000       0.13130000       0.92730000
   114  H          0.59590000       0.63130000       0.57270000
   115  H          0.59590000       0.86870000       0.07270000
   116  H          0.40410000       0.36870000       0.42730000
   117  H          0.29390000       0.02730000       0.87030000
   118  H          0.70610000       0.52730000       0.62970000
   119  H          0.70610000       0.97270000       0.12970000
   120  H          0.29390000       0.47270000       0.37030000
