data_SLFNMA01
_symmetry_space_group_name_H-M    'P1'
_symmetry_Int_Tables_number       1
loop_
_symmetry_equiv_pos_site_id
_symmetry_equiv_pos_as_xyz
1 x,y,z
_cell_length_a                   9.1451
_cell_length_b                   11.7041
_cell_length_c                   22.8842
_cell_angle_alpha                90.0
_cell_angle_beta                 90.0
_cell_angle_gamma                90.0
loop_
_atom_site_label
_atom_site_type_symbol
_atom_site_fract_x
_atom_site_fract_y
_atom_site_fract_z
     1  S          0.66680000       0.34680000       0.38980000
     2  S          0.83320000       0.65320000       0.88980000
     3  S          0.16680000       0.15320000       0.61020000
     4  S          0.33320000       0.84680000       0.11020000
     5  S          0.33320000       0.65320000       0.61020000
     6  S          0.16680000       0.34680000       0.11020000
     7  S          0.83320000       0.84680000       0.38980000
     8  S          0.66680000       0.15320000       0.88980000
     9  O          0.65620000       0.22520000       0.38600000
    10  O          0.84380000       0.77480000       0.88600000
    11  O          0.15620000       0.27480000       0.61400000
    12  O          0.34380000       0.72520000       0.11400000
    13  O          0.34380000       0.77480000       0.61400000
    14  O          0.15620000       0.22520000       0.11400000
    15  O          0.84380000       0.72520000       0.38600000
    16  O          0.65620000       0.27480000       0.88600000
    17  O          0.80170000       0.39710000       0.40980000
    18  O          0.69830000       0.60290000       0.90980000
    19  O          0.30170000       0.10290000       0.59020000
    20  O          0.19830000       0.89710000       0.09020000
    21  O          0.19830000       0.60290000       0.59020000
    22  O          0.30170000       0.39710000       0.09020000
    23  O          0.69830000       0.89710000       0.40980000
    24  O          0.80170000       0.10290000       0.90980000
    25  N          0.54830000       0.39490000       0.43790000
    26  N          0.95170000       0.60510000       0.93790000
    27  N          0.04830000       0.10510000       0.56210000
    28  N          0.45170000       0.89490000       0.06210000
    29  N          0.45170000       0.60510000       0.56210000
    30  N          0.04830000       0.39490000       0.06210000
    31  N          0.95170000       0.89490000       0.43790000
    32  N          0.54830000       0.10510000       0.93790000
    33  N          0.33410000       0.42610000       0.48530000
    34  N          0.16590000       0.57390000       0.98530000
    35  N          0.83410000       0.07390000       0.51470000
    36  N          0.66590000       0.92610000       0.01470000
    37  N          0.66590000       0.57390000       0.51470000
    38  N          0.83410000       0.42610000       0.01470000
    39  N          0.16590000       0.92610000       0.48530000
    40  N          0.33410000       0.07390000       0.98530000
    41  N          0.34500000       0.28640000       0.40920000
    42  N          0.15500000       0.71360000       0.90920000
    43  N          0.84500000       0.21360000       0.59080000
    44  N          0.65500000       0.78640000       0.09080000
    45  N          0.65500000       0.71360000       0.59080000
    46  N          0.84500000       0.28640000       0.09080000
    47  N          0.15500000       0.78640000       0.40920000
    48  N          0.34500000       0.21360000       0.90920000
    49  N          0.54190000       0.53210000       0.15550000
    50  N          0.95810000       0.46790000       0.65550000
    51  N          0.04190000       0.96790000       0.84450000
    52  N          0.45810000       0.03210000       0.34450000
    53  N          0.45810000       0.46790000       0.84450000
    54  N          0.04190000       0.53210000       0.34450000
    55  N          0.95810000       0.03210000       0.15550000
    56  N          0.54190000       0.96790000       0.65550000
    57  C          0.40240000       0.36740000       0.44350000
    58  C          0.09760000       0.63260000       0.94350000
    59  C          0.90240000       0.13260000       0.55650000
    60  C          0.59760000       0.86740000       0.05650000
    61  C          0.59760000       0.63260000       0.55650000
    62  C          0.90240000       0.36740000       0.05650000
    63  C          0.09760000       0.86740000       0.44350000
    64  C          0.40240000       0.13260000       0.94350000
    65  C          0.19410000       0.40200000       0.49270000
    66  C          0.30590000       0.59800000       0.99270000
    67  C          0.69410000       0.09800000       0.50730000
    68  C          0.80590000       0.90200000       0.00730000
    69  C          0.80590000       0.59800000       0.50730000
    70  C          0.69410000       0.40200000       0.00730000
    71  C          0.30590000       0.90200000       0.49270000
    72  C          0.19410000       0.09800000       0.99270000
    73  C          0.12170000       0.32070000       0.46010000
    74  C          0.37830000       0.67930000       0.96010000
    75  C          0.62170000       0.17930000       0.53990000
    76  C          0.87830000       0.82070000       0.03990000
    77  C          0.87830000       0.67930000       0.53990000
    78  C          0.62170000       0.32070000       0.03990000
    79  C          0.37830000       0.82070000       0.46010000
    80  C          0.12170000       0.17930000       0.96010000
    81  C          0.20260000       0.26430000       0.41840000
    82  C          0.29740000       0.73570000       0.91840000
    83  C          0.70260000       0.23570000       0.58160000
    84  C          0.79740000       0.76430000       0.08160000
    85  C          0.79740000       0.73570000       0.58160000
    86  C          0.70260000       0.26430000       0.08160000
    87  C          0.29740000       0.76430000       0.41840000
    88  C          0.20260000       0.23570000       0.91840000
    89  C          0.62270000       0.40530000       0.32170000
    90  C          0.87730000       0.59470000       0.82170000
    91  C          0.12270000       0.09470000       0.67830000
    92  C          0.37730000       0.90530000       0.17830000
    93  C          0.37730000       0.59470000       0.67830000
    94  C          0.12270000       0.40530000       0.17830000
    95  C          0.87730000       0.90530000       0.32170000
    96  C          0.62270000       0.09470000       0.82170000
    97  C          0.66430000       0.51670000       0.30810000
    98  C          0.83570000       0.48330000       0.80810000
    99  C          0.16430000       0.98330000       0.69190000
   100  C          0.33570000       0.01670000       0.19190000
   101  C          0.33570000       0.48330000       0.69190000
   102  C          0.16430000       0.51670000       0.19190000
   103  C          0.83570000       0.01670000       0.30810000
   104  C          0.66430000       0.98330000       0.80810000
   105  C          0.63740000       0.55880000       0.25370000
   106  C          0.86260000       0.44120000       0.75370000
   107  C          0.13740000       0.94120000       0.74630000
   108  C          0.36260000       0.05880000       0.24630000
   109  C          0.36260000       0.44120000       0.74630000
   110  C          0.13740000       0.55880000       0.24630000
   111  C          0.86260000       0.05880000       0.25370000
   112  C          0.63740000       0.94120000       0.75370000
   113  C          0.56560000       0.49390000       0.21090000
   114  C          0.93440000       0.50610000       0.71090000
   115  C          0.06560000       0.00610000       0.78910000
   116  C          0.43440000      -0.00610000       0.28910000
   117  C          0.43440000       0.50610000       0.78910000
   118  C          0.06560000       0.49390000       0.28910000
   119  C          0.93440000      -0.00610000       0.21090000
   120  C          0.56560000       0.00610000       0.71090000
   121  C          0.52170000       0.38290000       0.22610000
   122  C          0.97830000       0.61710000       0.72610000
   123  C          0.02170000       0.11710000       0.77390000
   124  C          0.47830000       0.88290000       0.27390000
   125  C          0.47830000       0.61710000       0.77390000
   126  C          0.02170000       0.38290000       0.27390000
   127  C          0.97830000       0.88290000       0.22610000
   128  C          0.52170000       0.11710000       0.72610000
   129  C          0.55020000       0.33880000       0.28050000
   130  C          0.94980000       0.66120000       0.78050000
   131  C          0.05020000       0.16120000       0.71950000
   132  C          0.44980000       0.83880000       0.21950000
   133  C          0.44980000       0.66120000       0.71950000
   134  C          0.05020000       0.33880000       0.21950000
   135  C          0.94980000       0.83880000       0.28050000
   136  C          0.55020000       0.16120000       0.78050000
   137  C          0.13580000       0.16960000       0.38200000
   138  C          0.36420000       0.83040000       0.88200000
   139  C          0.63580000       0.33040000       0.61800000
   140  C          0.86420000       0.66960000       0.11800000
   141  C          0.86420000       0.83040000       0.61800000
   142  C          0.63580000       0.16960000       0.11800000
   143  C          0.36420000       0.66960000       0.38200000
   144  C          0.13580000       0.33040000       0.88200000
   145  H          0.56700000       0.59400000       0.14500000
   146  H          0.93300000       0.40600000       0.64500000
   147  H          0.06700000       0.90600000       0.85500000
   148  H          0.43300000       0.09400000       0.35500000
   149  H          0.43300000       0.40600000       0.85500000
   150  H          0.06700000       0.59400000       0.35500000
   151  H          0.93300000       0.09400000       0.14500000
   152  H          0.56700000       0.90600000       0.64500000
   153  H          0.48000000       0.49100000       0.13200000
   154  H          0.02000000       0.50900000       0.63200000
   155  H          0.98000000       0.00900000       0.86800000
   156  H          0.52000000      -0.00900000       0.36800000
   157  H          0.52000000       0.50900000       0.86800000
   158  H          0.98000000       0.49100000       0.36800000
   159  H          0.02000000      -0.00900000       0.13200000
   160  H          0.48000000       0.00900000       0.63200000
   161  H          0.57800000       0.45100000       0.46100000
   162  H          0.92200000       0.54900000       0.96100000
   163  H          0.07800000       0.04900000       0.53900000
   164  H          0.42200000       0.95100000       0.03900000
   165  H          0.42200000       0.54900000       0.53900000
   166  H          0.07800000       0.45100000       0.03900000
   167  H          0.92200000       0.95100000       0.46100000
   168  H          0.57800000       0.04900000       0.96100000
   169  H          0.14400000       0.45200000       0.52300000
   170  H          0.35600000       0.54800000       0.02300000
   171  H          0.64400000       0.04800000       0.47700000
   172  H          0.85600000       0.95200000       0.97700000
   173  H          0.85600000       0.54800000       0.47700000
   174  H          0.64400000       0.45200000       0.97700000
   175  H          0.35600000       0.95200000       0.52300000
   176  H          0.14400000       0.04800000       0.02300000
   177  H          0.02000000       0.30400000       0.46600000
   178  H          0.48000000       0.69600000       0.96600000
   179  H          0.52000000       0.19600000       0.53400000
   180  H          0.98000000       0.80400000       0.03400000
   181  H          0.98000000       0.69600000       0.53400000
   182  H          0.52000000       0.30400000       0.03400000
   183  H          0.48000000       0.80400000       0.46600000
   184  H          0.02000000       0.19600000       0.96600000
   185  H          0.71300000       0.56100000       0.33700000
   186  H          0.78700000       0.43900000       0.83700000
   187  H          0.21300000       0.93900000       0.66300000
   188  H          0.28700000       0.06100000       0.16300000
   189  H          0.28700000       0.43900000       0.66300000
   190  H          0.21300000       0.56100000       0.16300000
   191  H          0.78700000       0.06100000       0.33700000
   192  H          0.71300000       0.93900000       0.83700000
   193  H          0.68100000       0.62700000       0.24500000
   194  H          0.81900000       0.37300000       0.74500000
   195  H          0.18100000       0.87300000       0.75500000
   196  H          0.31900000       0.12700000       0.25500000
   197  H          0.31900000       0.37300000       0.75500000
   198  H          0.18100000       0.62700000       0.25500000
   199  H          0.81900000       0.12700000       0.24500000
   200  H          0.68100000       0.87300000       0.74500000
   201  H          0.46400000       0.33300000       0.19600000
   202  H          0.03600000       0.66700000       0.69600000
   203  H          0.96400000       0.16700000       0.80400000
   204  H          0.53600000       0.83300000       0.30400000
   205  H          0.53600000       0.66700000       0.80400000
   206  H          0.96400000       0.33300000       0.30400000
   207  H          0.03600000       0.83300000       0.19600000
   208  H          0.46400000       0.16700000       0.69600000
   209  H          0.51600000       0.26500000       0.29400000
   210  H          0.98400000       0.73500000       0.79400000
   211  H          0.01600000       0.23500000       0.70600000
   212  H          0.48400000       0.76500000       0.20600000
   213  H          0.48400000       0.73500000       0.70600000
   214  H          0.01600000       0.26500000       0.20600000
   215  H          0.98400000       0.76500000       0.29400000
   216  H          0.51600000       0.23500000       0.79400000
   217  H          0.05400000       0.18900000       0.38100000
   218  H          0.44600000       0.81100000       0.88100000
   219  H          0.55400000       0.31100000       0.61900000
   220  H          0.94600000       0.68900000       0.11900000
   221  H          0.94600000       0.81100000       0.61900000
   222  H          0.55400000       0.18900000       0.11900000
   223  H          0.44600000       0.68900000       0.38100000
   224  H          0.05400000       0.31100000       0.88100000
   225  H          0.18300000       0.14500000       0.34700000
   226  H          0.31700000       0.85500000       0.84700000
   227  H          0.68300000       0.35500000       0.65300000
   228  H          0.81700000       0.64500000       0.15300000
   229  H          0.81700000       0.85500000       0.65300000
   230  H          0.68300000       0.14500000       0.15300000
   231  H          0.31700000       0.64500000       0.34700000
   232  H          0.18300000       0.35500000       0.84700000
   233  H          0.15800000       0.08300000       0.39800000
   234  H          0.34200000       0.91700000       0.89800000
   235  H          0.65800000       0.41700000       0.60200000
   236  H          0.84200000       0.58300000       0.10200000
   237  H          0.84200000       0.91700000       0.60200000
   238  H          0.65800000       0.08300000       0.10200000
   239  H          0.34200000       0.58300000       0.39800000
   240  H          0.15800000       0.41700000       0.89800000
