data_SLFNMB02
_symmetry_space_group_name_H-M    'P1'
_symmetry_Int_Tables_number       1
loop_
_symmetry_equiv_pos_site_id
_symmetry_equiv_pos_as_xyz
1 x,y,z
_cell_length_a                   25.0954
_cell_length_b                   7.2261
_cell_length_c                   14.8482
_cell_angle_alpha                90.0
_cell_angle_beta                 117.991
_cell_angle_gamma                90.0
loop_
_atom_site_label
_atom_site_type_symbol
_atom_site_fract_x
_atom_site_fract_y
_atom_site_fract_z
     1  S          0.39990000       0.40460000       0.61610000
     2  S          0.89990000       0.90460000       0.61610000
     3  S          0.60010000       0.40460000       0.88390000
     4  S          0.10010000       0.90460000       0.88390000
     5  S          0.60010000       0.59540000       0.38390000
     6  S          0.10010000       0.09540000       0.38390000
     7  S          0.39990000       0.59540000       0.11610000
     8  S          0.89990000       0.09540000       0.11610000
     9  O          0.41900000       0.59500000       0.63110000
    10  O          0.91900000       0.09500000       0.63110000
    11  O          0.58100000       0.59500000       0.86890000
    12  O          0.08100000       0.09500000       0.86890000
    13  O          0.58100000       0.40500000       0.36890000
    14  O          0.08100000       0.90500000       0.36890000
    15  O          0.41900000       0.40500000       0.13110000
    16  O          0.91900000       0.90500000       0.13110000
    17  O          0.42000000       0.28220000       0.70170000
    18  O          0.92000000       0.78220000       0.70170000
    19  O          0.58000000       0.28220000       0.79830000
    20  O          0.08000000       0.78220000       0.79830000
    21  O          0.58000000       0.71780000       0.29830000
    22  O          0.08000000       0.21780000       0.29830000
    23  O          0.42000000       0.71780000       0.20170000
    24  O          0.92000000       0.21780000       0.20170000
    25  O          0.20650000       0.57430000       0.34680000
    26  O          0.70650000       0.07430000       0.34680000
    27  O          0.79350000       0.57430000       0.15320000
    28  O          0.29350000       0.07430000       0.15320000
    29  O          0.79350000       0.42570000       0.65320000
    30  O          0.29350000       0.92570000       0.65320000
    31  O          0.20650000       0.42570000       0.84680000
    32  O          0.70650000       0.92570000       0.84680000
    33  N          0.44940000       0.09610000       0.29520000
    34  N          0.94940000       0.59610000       0.29520000
    35  N          0.55060000       0.09610000       0.20480000
    36  N          0.05060000       0.59610000       0.20480000
    37  N          0.55060000       0.90390000       0.70480000
    38  N          0.05060000       0.40390000       0.70480000
    39  N          0.44940000       0.90390000       0.79520000
    40  N          0.94940000       0.40390000       0.79520000
    41  N          0.32600000       0.40440000       0.56970000
    42  N          0.82600000       0.90440000       0.56970000
    43  N          0.67400000       0.40440000       0.93030000
    44  N          0.17400000       0.90440000       0.93030000
    45  N          0.67400000       0.59560000       0.43030000
    46  N          0.17400000       0.09560000       0.43030000
    47  N          0.32600000       0.59560000       0.06970000
    48  N          0.82600000       0.09560000       0.06970000
    49  N          0.23380000       0.44220000       0.42570000
    50  N          0.73380000       0.94220000       0.42570000
    51  N          0.76620000       0.44220000       0.07430000
    52  N          0.26620000       0.94220000       0.07430000
    53  N          0.76620000       0.55780000       0.57430000
    54  N          0.26620000       0.05780000       0.57430000
    55  N          0.23380000       0.55780000       0.92570000
    56  N          0.73380000       0.05780000       0.92570000
    57  C          0.43650000       0.16500000       0.36880000
    58  C          0.93650000       0.66500000       0.36880000
    59  C          0.56350000       0.16500000       0.13120000
    60  C          0.06350000       0.66500000       0.13120000
    61  C          0.56350000       0.83500000       0.63120000
    62  C          0.06350000       0.33500000       0.63120000
    63  C          0.43650000       0.83500000       0.86880000
    64  C          0.93650000       0.33500000       0.86880000
    65  C          0.43820000       0.35540000       0.38510000
    66  C          0.93820000       0.85540000       0.38510000
    67  C          0.56180000       0.35540000       0.11490000
    68  C          0.06180000       0.85540000       0.11490000
    69  C          0.56180000       0.64460000       0.61490000
    70  C          0.06180000       0.14460000       0.61490000
    71  C          0.43820000       0.64460000       0.88510000
    72  C          0.93820000       0.14460000       0.88510000
    73  C          0.42740000       0.42700000       0.46070000
    74  C          0.92740000       0.92700000       0.46070000
    75  C          0.57260000       0.42700000       0.03930000
    76  C          0.07260000       0.92700000       0.03930000
    77  C          0.57260000       0.57300000       0.53930000
    78  C          0.07260000       0.07300000       0.53930000
    79  C          0.42740000       0.57300000       0.96070000
    80  C          0.92740000       0.07300000       0.96070000
    81  C          0.41520000       0.31070000       0.52260000
    82  C          0.91520000       0.81070000       0.52260000
    83  C          0.58480000       0.31070000       0.97740000
    84  C          0.08480000       0.81070000       0.97740000
    85  C          0.58480000       0.68930000       0.47740000
    86  C          0.08480000       0.18930000       0.47740000
    87  C          0.41520000       0.68930000       0.02260000
    88  C          0.91520000       0.18930000       0.02260000
    89  C          0.41330000       0.12110000       0.50790000
    90  C          0.91330000       0.62110000       0.50790000
    91  C          0.58670000       0.12110000      -0.00790000
    92  C          0.08670000       0.62110000      -0.00790000
    93  C          0.58670000       0.87890000       0.49210000
    94  C          0.08670000       0.37890000       0.49210000
    95  C          0.41330000       0.87890000       0.00790000
    96  C          0.91330000       0.37890000       0.00790000
    97  C          0.42360000       0.04970000       0.43180000
    98  C          0.92360000       0.54970000       0.43180000
    99  C          0.57640000       0.04970000       0.06820000
   100  C          0.07640000       0.54970000       0.06820000
   101  C          0.57640000       0.95030000       0.56820000
   102  C          0.07640000       0.45030000       0.56820000
   103  C          0.42360000       0.95030000       0.93180000
   104  C          0.92360000       0.45030000       0.93180000
   105  C          0.28820000       0.50340000       0.48280000
   106  C          0.78820000       0.00340000       0.48280000
   107  C          0.71180000       0.50340000       0.01720000
   108  C          0.21180000       0.00340000       0.01720000
   109  C          0.71180000       0.49660000       0.51720000
   110  C          0.21180000      -0.00340000       0.51720000
   111  C          0.28820000       0.49660000       0.98280000
   112  C          0.78820000      -0.00340000       0.98280000
   113  C          0.29870000       0.67110000       0.44480000
   114  C          0.79870000       0.17110000       0.44480000
   115  C          0.70130000       0.67110000       0.05520000
   116  C          0.20130000       0.17110000       0.05520000
   117  C          0.70130000       0.32890000       0.55520000
   118  C          0.20130000       0.82890000       0.55520000
   119  C          0.29870000       0.32890000       0.94480000
   120  C          0.79870000       0.82890000       0.94480000
   121  C          0.24730000       0.70710000       0.36140000
   122  C          0.74730000       0.20710000       0.36140000
   123  C          0.75270000       0.70710000       0.13860000
   124  C          0.25270000       0.20710000       0.13860000
   125  C          0.75270000       0.29290000       0.63860000
   126  C          0.25270000       0.79290000       0.63860000
   127  C          0.24730000       0.29290000       0.86140000
   128  C          0.74730000       0.79290000       0.86140000
   129  C          0.22720000       0.85600000       0.28360000
   130  C          0.72720000       0.35600000       0.28360000
   131  C          0.77280000       0.85600000       0.21640000
   132  C          0.27280000       0.35600000       0.21640000
   133  C          0.77280000       0.14400000       0.71640000
   134  C          0.27280000       0.64400000       0.71640000
   135  C          0.22720000       0.14400000       0.78360000
   136  C          0.72720000       0.64400000       0.78360000
   137  H          0.44300000       0.18400000       0.23900000
   138  H          0.94300000       0.68400000       0.23900000
   139  H          0.55700000       0.18400000       0.26100000
   140  H          0.05700000       0.68400000       0.26100000
   141  H          0.55700000       0.81600000       0.76100000
   142  H          0.05700000       0.31600000       0.76100000
   143  H          0.44300000       0.81600000       0.73900000
   144  H          0.94300000       0.31600000       0.73900000
   145  H          0.44000000       0.97700000       0.27600000
   146  H          0.94000000       0.47700000       0.27600000
   147  H          0.56000000       0.97700000       0.22400000
   148  H          0.06000000       0.47700000       0.22400000
   149  H          0.56000000       0.02300000       0.72400000
   150  H          0.06000000       0.52300000       0.72400000
   151  H          0.44000000       0.02300000       0.77600000
   152  H          0.94000000       0.52300000       0.77600000
   153  H          0.31000000       0.30400000       0.58400000
   154  H          0.81000000       0.80400000       0.58400000
   155  H          0.69000000       0.30400000       0.91600000
   156  H          0.19000000       0.80400000       0.91600000
   157  H          0.69000000       0.69600000       0.41600000
   158  H          0.19000000       0.19600000       0.41600000
   159  H          0.31000000       0.69600000       0.08400000
   160  H          0.81000000       0.19600000       0.08400000
   161  H          0.44700000       0.44100000       0.34200000
   162  H          0.94700000       0.94100000       0.34200000
   163  H          0.55300000       0.44100000       0.15800000
   164  H          0.05300000       0.94100000       0.15800000
   165  H          0.55300000       0.55900000       0.65800000
   166  H          0.05300000       0.05900000       0.65800000
   167  H          0.44700000       0.55900000       0.84200000
   168  H          0.94700000       0.05900000       0.84200000
   169  H          0.42800000       0.56000000       0.47000000
   170  H          0.92800000       0.06000000       0.47000000
   171  H          0.57200000       0.56000000       0.03000000
   172  H          0.07200000       0.06000000       0.03000000
   173  H          0.57200000       0.44000000       0.53000000
   174  H          0.07200000       0.94000000       0.53000000
   175  H          0.42800000       0.44000000       0.97000000
   176  H          0.92800000       0.94000000       0.97000000
   177  H          0.40600000       0.04100000       0.55400000
   178  H          0.90600000       0.54100000       0.55400000
   179  H          0.59400000       0.04100000       0.94600000
   180  H          0.09400000       0.54100000       0.94600000
   181  H          0.59400000       0.95900000       0.44600000
   182  H          0.09400000       0.45900000       0.44600000
   183  H          0.40600000       0.95900000       0.05400000
   184  H          0.90600000       0.45900000       0.05400000
   185  H          0.42300000       0.91600000       0.42300000
   186  H          0.92300000       0.41600000       0.42300000
   187  H          0.57700000       0.91600000       0.07700000
   188  H          0.07700000       0.41600000       0.07700000
   189  H          0.57700000       0.08400000       0.57700000
   190  H          0.07700000       0.58400000       0.57700000
   191  H          0.42300000       0.08400000       0.92300000
   192  H          0.92300000       0.58400000       0.92300000
   193  H          0.33400000       0.73600000       0.47600000
   194  H          0.83400000       0.23600000       0.47600000
   195  H          0.66600000       0.73600000       0.02400000
   196  H          0.16600000       0.23600000       0.02400000
   197  H          0.66600000       0.26400000       0.52400000
   198  H          0.16600000       0.76400000       0.52400000
   199  H          0.33400000       0.26400000       0.97600000
   200  H          0.83400000       0.76400000       0.97600000
   201  H          0.19400000       0.92100000       0.28100000
   202  H          0.69400000       0.42100000       0.28100000
   203  H          0.80600000       0.92100000       0.21900000
   204  H          0.30600000       0.42100000       0.21900000
   205  H          0.80600000       0.07900000       0.71900000
   206  H          0.30600000       0.57900000       0.71900000
   207  H          0.19400000       0.07900000       0.78100000
   208  H          0.69400000       0.57900000       0.78100000
   209  H          0.22200000       0.81700000       0.22300000
   210  H          0.72200000       0.31700000       0.22300000
   211  H          0.77800000       0.81700000       0.27700000
   212  H          0.27800000       0.31700000       0.27700000
   213  H          0.77800000       0.18300000       0.77700000
   214  H          0.27800000       0.68300000       0.77700000
   215  H          0.22200000       0.18300000       0.72300000
   216  H          0.72200000       0.68300000       0.72300000
   217  H          0.25800000       0.95000000       0.30600000
   218  H          0.75800000       0.45000000       0.30600000
   219  H          0.74200000       0.95000000       0.19400000
   220  H          0.24200000       0.45000000       0.19400000
   221  H          0.74200000       0.05000000       0.69400000
   222  H          0.24200000       0.55000000       0.69400000
   223  H          0.25800000       0.05000000       0.80600000
   224  H          0.75800000       0.55000000       0.80600000
