data_SLFNMA06
_symmetry_space_group_name_H-M    'P1'
_symmetry_Int_Tables_number       1
loop_
_symmetry_equiv_pos_site_id
_symmetry_equiv_pos_as_xyz
1 x,y,z
_cell_length_a                   12.5712
_cell_length_b                   6.3671
_cell_length_c                   16.1752
_cell_angle_alpha                90.0
_cell_angle_beta                 110.2151
_cell_angle_gamma                90.0
loop_
_atom_site_label
_atom_site_type_symbol
_atom_site_fract_x
_atom_site_fract_y
_atom_site_fract_z
     1  S          0.21712300       0.13730600       0.46211200
     2  S          0.78287700       0.63730600       0.03788800
     3  S          0.78287700       0.86269400       0.53788800
     4  S          0.21712300       0.36269400       0.96211200
     5  O          0.18442100       0.34932000       0.43631800
     6  O          0.81557900       0.84932000       0.06368200
     7  O          0.81557900       0.65068000       0.56368200
     8  O          0.18442100       0.15068000       0.93631800
     9  N          0.35663100       0.12242000       0.49924800
    10  N          0.64336900       0.62242000       0.00075200
    11  N          0.64336900       0.87758000       0.50075200
    12  N          0.35663100       0.37758000      -0.00075200
    13  H          0.38520000       0.01320000       0.48360000
    14  H          0.61480000       0.51320000       0.01640000
    15  H          0.61480000      -0.01320000       0.51640000
    16  H          0.38520000       0.48680000       0.98360000
    17  N          0.54167100       0.22422000       0.56188900
    18  N          0.45832900       0.72422000       0.93811100
    19  N          0.45832900       0.77578000       0.43811100
    20  N          0.54167100       0.27578000       0.06188900
    21  O          0.18492900       0.97418000       0.39736700
    22  O          0.81507100       0.47418000       0.10263300
    23  O          0.81507100       0.02582000       0.60263300
    24  O          0.18492900       0.52582000       0.89736700
    25  N          0.39544100       0.42122000       0.58886800
    26  N          0.60455900       0.92122000       0.91113200
    27  N          0.60455900       0.57878000       0.41113200
    28  N          0.39544100       0.07878000       0.08886800
    29  C          0.17206110       0.07082000       0.54945900
    30  C          0.82793890       0.57082000       0.95054100
    31  C          0.82793890       0.92918000       0.45054100
    32  C          0.17206110       0.42918000       0.04945900
    33  C          0.13798130       0.86648000       0.55746110
    34  C          0.86201870       0.36648000       0.94253890
    35  C          0.86201870       0.13352000       0.44253890
    36  C          0.13798130       0.63352000       0.05746110
    37  H          0.13690000       0.76620000       0.51540000
    38  H          0.86310000       0.26620000       0.98460000
    39  H          0.86310000       0.23380000       0.48460000
    40  H          0.13690000       0.73380000       0.01540000
    41  C          0.10871110       0.96157000       0.69259900
    42  C          0.89128890       0.46157000       0.80740100
    43  C          0.89128890       0.03843000       0.30740100
    44  C          0.10871110       0.53843000       0.19259900
    45  N          0.07788120       0.90787000       0.76371900
    46  N          0.92211880       0.40787000       0.73628100
    47  N          0.92211880       0.09213000       0.23628100
    48  N          0.07788120       0.59213000       0.26371900
    49  H          0.07820000       0.00140000       0.80220000
    50  H          0.92180000       0.50140000       0.69780000
    51  H          0.92180000      -0.00140000       0.19780000
    52  H          0.07820000       0.49860000       0.30220000
    53  H          0.05830000       0.78100000       0.76960000
    54  H          0.94170000       0.28100000       0.73040000
    55  H          0.94170000       0.21900000       0.23040000
    56  H          0.05830000       0.71900000       0.26960000
    57  C          0.43321110       0.26442000       0.55251900
    58  C          0.56678890       0.76442000       0.94748100
    59  C          0.56678890       0.73558000       0.44748100
    60  C          0.43321110       0.23558000       0.05251900
    61  C          0.17187130       0.22202000       0.61121100
    62  C          0.82812870       0.72202000       0.88878900
    63  C          0.82812870       0.77798000       0.38878900
    64  C          0.17187130       0.27798000       0.11121100
    65  H          0.19270000       0.35960000       0.60470000
    66  H          0.80730000       0.85960000       0.89530000
    67  H          0.80730000       0.64040000       0.39530000
    68  H          0.19270000       0.14040000       0.10470000
    69  C          0.47345140       0.55903000       0.63659100
    70  C          0.52654860       0.05903000       0.86340900
    71  C          0.52654860       0.44097000       0.36340900
    72  C          0.47345140       0.94097000       0.13659100
    73  C          0.10579130       0.81317000       0.62810110
    74  C          0.89420870       0.31317000       0.87189890
    75  C          0.89420870       0.18683000       0.37189890
    76  C          0.10579130       0.68683000       0.12810110
    77  H          0.08190000       0.67700000       0.63290000
    78  H          0.91810000       0.17700000       0.86710000
    79  H          0.91810000       0.32300000       0.36710000
    80  H          0.08190000       0.82300000       0.13290000
    81  C          0.14064130       0.16753000       0.68242100
    82  C          0.85935870       0.66753000       0.81757900
    83  C          0.85935870       0.83247000       0.31757900
    84  C          0.14064130       0.33247000       0.18242100
    85  H          0.14090000       0.26880000       0.72390000
    86  H          0.85910000       0.76880000       0.77610000
    87  H          0.85910000       0.73120000       0.27610000
    88  H          0.14090000       0.23120000       0.22390000
    89  C          0.61730130       0.36483000       0.60962110
    90  C          0.38269870       0.86483000       0.89037890
    91  C          0.38269870       0.63517000       0.39037890
    92  C          0.61730130       0.13517000       0.10962110
    93  H          0.69350000       0.34500000       0.61750000
    94  H          0.30650000       0.84500000       0.88250000
    95  H          0.30650000       0.65500000       0.38250000
    96  H          0.69350000       0.15500000       0.11750000
    97  C          0.58692140       0.53663000       0.64723110
    98  C          0.41307860       0.03663000       0.85276890
    99  C          0.41307860       0.46337000       0.35276890
   100  C          0.58692140       0.96337000       0.14723110
   101  H          0.64050000       0.63460000       0.67870000
   102  H          0.35950000       0.13460000       0.82130000
   103  H          0.35950000       0.36540000       0.32130000
   104  H          0.64050000       0.86540000       0.17870000
   105  C          0.43264190       0.73263000       0.67957140
   106  C          0.56735810       0.23263000       0.82042860
   107  C          0.56735810       0.26737000       0.32042860
   108  C          0.43264190       0.76737000       0.17957140
   109  H          0.38320000       0.82270000       0.63520000
   110  H          0.61680000       0.32270000       0.86480000
   111  H          0.61680000       0.17730000       0.36480000
   112  H          0.38320000       0.67730000       0.13520000
   113  H          0.49630000       0.81220000       0.71630000
   114  H          0.50370000       0.31220000       0.78370000
   115  H          0.50370000       0.18780000       0.28370000
   116  H          0.49630000       0.68780000       0.21630000
   117  H          0.39210000       0.67500000       0.71490000
   118  H          0.60790000       0.17500000       0.78510000
   119  H          0.60790000       0.32500000       0.28510000
   120  H          0.39210000       0.82500000       0.21490000
