data_SLFNMA02
_symmetry_space_group_name_H-M    'P1'
_symmetry_Int_Tables_number       1
loop_
_symmetry_equiv_pos_site_id
_symmetry_equiv_pos_as_xyz
1 x,y,z
_cell_length_a                   14.4742
_cell_length_b                   21.9532
_cell_length_c                   8.2031
_cell_angle_alpha                90.0
_cell_angle_beta                 90.0
_cell_angle_gamma                90.0
loop_
_atom_site_label
_atom_site_type_symbol
_atom_site_fract_x
_atom_site_fract_y
_atom_site_fract_z
     1  C          0.01893000       0.73472000       0.81445000
     2  C          0.48107000       0.23472000       0.31445000
     3  C          0.51893000       0.73472000       0.68555000
     4  C          0.98107000       0.23472000       0.18555000
     5  C          0.92817000       0.75552000       0.81624000
     6  C          0.57183000       0.25552000       0.31624000
     7  C          0.42817000       0.75552000       0.68376000
     8  C          0.07183000       0.25552000       0.18376000
     9  C          0.88277000       0.76542000       0.67204000
    10  C          0.61723000       0.26542000       0.17204000
    11  C          0.38277000       0.76542000       0.82796000
    12  C          0.11723000       0.26542000       0.32796000
    13  C          0.92676000       0.75623000       0.52314000
    14  C          0.57324000       0.25623000       0.02314000
    15  C          0.42676000       0.75623000       0.97686000
    16  C          0.07324000       0.25623000       0.47686000
    17  C          0.01794000       0.73523000       0.52224000
    18  C          0.48206000       0.23523000       0.02224000
    19  C          0.51794000       0.73523000       0.97776000
    20  C          0.98206000       0.23523000       0.47776000
    21  C          0.06323000       0.72463000       0.66674000
    22  C          0.43677000       0.22463000       0.16674000
    23  C          0.56323000       0.72463000       0.83326000
    24  C          0.93677000       0.22463000       0.33326000
    25  N          0.87966000       0.76503000       0.38204000
    26  N          0.62034000       0.26503000       0.88204000
    27  N          0.37966000       0.76503000       0.11796000
    28  N          0.12034000       0.26503000       0.61796000
    29  S          0.07781000       0.72090000      -0.00541000
    30  S          0.42219000       0.22090000       0.49459000
    31  S          0.57781000       0.72090000       0.50541000
    32  S          0.92219000       0.22090000       0.00541000
    33  O          0.03573000       0.75542000       0.12144000
    34  O          0.46427000       0.25542000       0.62144000
    35  O          0.53573000       0.75542000       0.37856000
    36  O          0.96427000       0.25542000       0.87856000
    37  O          0.17512000       0.72792000       0.96685000
    38  O          0.32488000       0.22792000       0.46685000
    39  O          0.67512000       0.72792000       0.53315000
    40  O          0.82488000       0.22792000       0.03315000
    41  N          0.06863000       0.64792000       0.03516000
    42  N          0.43137000       0.14792000       0.53516000
    43  N          0.56863000       0.64792000       0.46484000
    44  N          0.93137000       0.14792000       0.96484000
    45  C          0.98687000       0.61722000       0.06306000
    46  C          0.51313000       0.11722000       0.56306000
    47  C          0.48687000       0.61722000       0.43694000
    48  C          0.01313000       0.11722000       0.93694000
    49  N          0.91007000       0.64852000       0.08425000
    50  N          0.58993000       0.14852000       0.58425000
    51  N          0.41007000       0.64852000       0.41575000
    52  N          0.08993000       0.14852000       0.91575000
    53  C          0.83306000       0.61693000       0.11358000
    54  C          0.66694000       0.11693000       0.61358000
    55  C          0.33306000       0.61693000       0.38642000
    56  C          0.16694000       0.11693000       0.88642000
    57  C          0.83656000       0.55413000       0.12521200
    58  C          0.66344000       0.05413000       0.62521200
    59  C          0.33656000       0.55413000       0.37478800
    60  C          0.16344000       0.05413000       0.87478800
    61  C          0.91925000       0.52603000       0.09701300
    62  C          0.58075000       0.02603000       0.59701300
    63  C          0.41925000       0.52603000       0.40298700
    64  C          0.08075000       0.02603000       0.90298700
    65  N         -0.00333000       0.55712000       0.06757000
    66  N          0.50333000       0.05712000       0.56757000
    67  N          0.49667000       0.55712000       0.43243000
    68  N          0.00333000       0.05712000       0.93243000
    69  C          0.74596000       0.65274000       0.13471100
    70  C          0.75404000       0.15274000       0.63471100
    71  C          0.24596000       0.65274000       0.36528900
    72  C          0.25404000       0.15274000       0.86528900
    73  H          0.89617000       0.76312000       0.92234000
    74  H          0.60383000       0.26312000       0.42234000
    75  H          0.39617000       0.76312000       0.57766000
    76  H          0.10383000       0.26312000       0.07766000
    77  H          0.81687000       0.77922000       0.67394000
    78  H          0.68313000       0.27922000       0.17394000
    79  H          0.31687000       0.77922000       0.82606000
    80  H          0.18313000       0.27922000       0.32606000
    81  H          0.05004000       0.72773000       0.41624000
    82  H          0.44996000       0.22773000       0.91624000
    83  H          0.55004000       0.72773000       0.08376000
    84  H          0.94996000       0.22773000       0.58376000
    85  H          0.12853000       0.70953000       0.66554000
    86  H          0.37147000       0.20953000       0.16554000
    87  H          0.62853000       0.70953000       0.83446000
    88  H          0.87147000       0.20953000       0.33446000
    89  H          0.82845800       0.78492900       0.37772500
    90  H          0.67154200       0.28492900       0.87772500
    91  H          0.32845800       0.78492900       0.12227500
    92  H          0.17154200       0.28492900       0.62227500
    93  H          0.92016100       0.76902900       0.30712200
    94  H          0.57983900       0.26902900       0.80712200
    95  H          0.42016100       0.76902900       0.19287800
    96  H          0.07983900       0.26902900       0.69287800
    97  H          0.12693000       0.62362000       0.04006000
    98  H          0.37307000       0.12362000       0.54006000
    99  H          0.62693000       0.62362000       0.45994000
   100  H          0.87307000       0.12362000       0.95994000
   101  H          0.78016000       0.52993000       0.15271200
   102  H          0.71984000       0.02993000       0.65271200
   103  H          0.28016000       0.52993000       0.34728800
   104  H          0.21984000       0.02993000       0.84728800
   105  H          0.92185000       0.48053000       0.09861300
   106  H          0.57815000       0.98053000       0.59861300
   107  H          0.42185000       0.48053000       0.40138700
   108  H          0.07815000       0.98053000       0.90138700
   109  H          0.68936000       0.62744000       0.15111100
   110  H          0.81064000       0.12744000       0.65111100
   111  H          0.18936000       0.62744000       0.34888900
   112  H          0.31064000       0.12744000       0.84888900
   113  H          0.73396000       0.68394000       0.04841100
   114  H          0.76604000       0.18394000       0.54841100
   115  H          0.23396000       0.68394000       0.45158900
   116  H          0.26604000       0.18394000       0.95158900
   117  H          0.76236000       0.67364000       0.23911100
   118  H          0.73764000       0.17364000       0.73911100
   119  H          0.26236000       0.67364000       0.26088900
   120  H          0.23764000       0.17364000       0.76088900
   121  C          0.20653000       0.40352000       0.17795000
   122  C          0.29347000       0.90352000       0.67795000
   123  C          0.70653000       0.40352000       0.32205000
   124  C          0.79347000       0.90352000       0.82205000
   125  C          0.29583000       0.37962000       0.18086000
   126  C          0.20417000       0.87962000       0.68086000
   127  C          0.79583000       0.37962000       0.31914000
   128  C          0.70417000       0.87962000       0.81914000
   129  C          0.34033000       0.37273000       0.32496000
   130  C          0.15967000       0.87273000       0.82496000
   131  C          0.84033000       0.37273000       0.17504000
   132  C          0.65967000       0.87273000       0.67504000
   133  C          0.29844000       0.38812000       0.47236000
   134  C          0.20156000       0.88812000       0.97236000
   135  C          0.79844000       0.38812000       0.02764000
   136  C          0.70156000       0.88812000       0.52764000
   137  C          0.20814000       0.41183000       0.46736000
   138  C          0.29186000       0.91183000       0.96736000
   139  C          0.70814000       0.41183000       0.03264000
   140  C          0.79186000       0.91183000       0.53264000
   141  C          0.16373000       0.41903000       0.32316000
   142  C          0.33627000       0.91903000       0.82316000
   143  C          0.66373000       0.41903000       0.17684000
   144  C          0.83627000       0.91903000       0.67684000
   145  N          0.34323000       0.38163000       0.61616000
   146  N          0.15677000       0.88163000       0.11616000
   147  N          0.84323000       0.38163000       0.88384000
   148  N          0.65677000       0.88163000       0.38384000
   149  S          0.14741000       0.41351000      -0.00431000
   150  S          0.35259000       0.91351000       0.49569000
   151  S          0.64741000       0.41351000       0.50431000
   152  S          0.85259000       0.91351000       0.00431000
   153  O          0.18993000       0.37842000       0.87206000
   154  O          0.31007000       0.87842000       0.37206000
   155  O          0.68993000       0.37842000       0.62794000
   156  O          0.81007000       0.87842000       0.12794000
   157  O          0.05022000       0.40712000       0.02344000
   158  O          0.44978000       0.90712000       0.52344000
   159  O          0.55022000       0.40712000       0.47656000
   160  O          0.94978000       0.90712000       0.97656000
   161  N          0.15643000       0.48632000       0.95014000
   162  N          0.34357000       0.98632000       0.45014000
   163  N          0.65643000       0.48632000       0.54986000
   164  N          0.84357000       0.98632000       0.04986000
   165  C          0.23833000       0.51862000       0.92743000
   166  C          0.26167000       0.01862000       0.42743000
   167  C          0.73833000       0.51862000       0.57257000
   168  C          0.76167000       0.01862000       0.07257000
   169  N          0.31543000       0.48712000       0.91115000
   170  N          0.18457000       0.98712000       0.41115000
   171  N          0.81543000       0.48712000       0.58885000
   172  N          0.68457000       0.98712000       0.08885000
   173  C          0.39264000       0.52003000       0.88833000
   174  C          0.10736000       0.02003000       0.38833000
   175  C          0.89264000       0.52003000       0.61167000
   176  C          0.60736000       0.02003000       0.11167000
   177  C          0.39044000       0.58183000       0.88139000
   178  C          0.10956000       0.08183000       0.38139000
   179  C          0.89044000       0.58183000       0.61861000
   180  C          0.60956000       0.08183000       0.11861000
   181  C          0.30654000       0.60983000       0.90208800
   182  C          0.19346000       0.10983000       0.40208800
   183  C          0.80654000       0.60983000       0.59791200
   184  C          0.69346000       0.10983000       0.09791200
   185  N          0.22783000       0.57832000       0.92863000
   186  N          0.27217000       0.07832000       0.42863000
   187  N          0.72783000       0.57832000       0.57137000
   188  N          0.77217000       0.07832000       0.07137000
   189  C          0.47984000       0.48434000       0.87119000
   190  C          0.02016000       0.98434000       0.37119000
   191  C          0.97984000       0.48434000       0.62881000
   192  C          0.52016000       0.98434000       0.12881000
   193  H          0.32713000       0.36772000       0.07686000
   194  H          0.17287000       0.86772000       0.57686000
   195  H          0.82713000       0.36772000       0.42314000
   196  H          0.67287000       0.86772000       0.92314000
   197  H          0.40463000       0.35603000       0.32566000
   198  H          0.09537000       0.85603000       0.82566000
   199  H          0.90463000       0.35603000       0.17434000
   200  H          0.59537000       0.85603000       0.67434000
   201  H          0.17624000       0.42333000       0.57106000
   202  H          0.32376000       0.92333000       0.07106000
   203  H          0.67624000       0.42333000       0.92894000
   204  H          0.82376000       0.92333000       0.42894000
   205  H          0.09943000       0.43573000       0.32156000
   206  H          0.40057000       0.93573000       0.82156000
   207  H          0.59943000       0.43573000       0.17844000
   208  H          0.90057000       0.93573000       0.67844000
   209  H          0.39824500       0.36513000       0.62217800
   210  H          0.10175500       0.86513000       0.12217800
   211  H          0.89824500       0.36513000       0.87782200
   212  H          0.60175500       0.86513000       0.37782200
   213  H          0.31023900       0.39122700       0.71808400
   214  H          0.18976100       0.89122700       0.21808400
   215  H          0.81023900       0.39122700       0.78191600
   216  H          0.68976100       0.89122700       0.28191600
   217  H          0.09743000       0.50962000       0.93774000
   218  H          0.40257000       0.00962000       0.43774000
   219  H          0.59743000       0.50962000       0.56226000
   220  H          0.90257000       0.00962000       0.06226000
   221  H          0.44794000       0.60603000       0.86229000
   222  H          0.05206000       0.10603000       0.36229000
   223  H          0.94794000       0.60603000       0.63771000
   224  H          0.55206000       0.10603000       0.13771000
   225  H          0.30344000       0.65533000       0.89688800
   226  H          0.19656000       0.15533000       0.39688800
   227  H          0.80344000       0.65533000       0.60311200
   228  H          0.69656000       0.15533000       0.10311200
   229  H          0.53314000       0.51214000       0.84959000
   230  H          0.96686000       0.01214000       0.34959000
   231  H          0.03314000       0.51214000       0.65041000
   232  H          0.46686000       0.01214000       0.15041000
   233  H          0.47094000       0.45654000       0.77599000
   234  H          0.02906000       0.95654000       0.27599000
   235  H          0.97094000       0.45654000       0.72401000
   236  H          0.52906000       0.95654000       0.22401000
   237  H          0.49264000       0.45964000       0.97109000
   238  H          0.00736000       0.95964000       0.47109000
   239  H         -0.00736000       0.45964000       0.52891000
   240  H          0.50736000       0.95964000       0.02891000
