data_SLFNMB05
_symmetry_space_group_name_H-M    'P1'
_symmetry_Int_Tables_number       1
loop_
_symmetry_equiv_pos_site_id
_symmetry_equiv_pos_as_xyz
1 x,y,z
_cell_length_a                   11.6403
_cell_length_b                   6.818919
_cell_length_c                   15.4194
_cell_angle_alpha                90.0
_cell_angle_beta                 107.1065
_cell_angle_gamma                90.0
loop_
_atom_site_label
_atom_site_type_symbol
_atom_site_fract_x
_atom_site_fract_y
_atom_site_fract_z
     1  S          0.20144140       0.17536170       0.92564800
     2  S          0.79855860       0.67536170       0.57435200
     3  S          0.79855860       0.82463830       0.07435200
     4  S          0.20144140       0.32463830       0.42564800
     5  N          0.11155000       0.84943000       0.55613000
     6  N          0.88845000       0.34943000       0.94387000
     7  N          0.88845000       0.15057000       0.44387000
     8  N          0.11155000       0.65057000       0.05613000
     9  N          0.34764000       0.16525000       0.96843000
    10  N          0.65236000       0.66525000       0.53157000
    11  N          0.65236000       0.83475000       0.03157000
    12  N          0.34764000       0.33475000       0.46843000
    13  N          0.53465000       0.19196000       0.94223000
    14  N          0.46535000       0.69196000       0.55777000
    15  N          0.46535000       0.80804000       0.05777000
    16  N          0.53465000       0.30804000       0.44223000
    17  O          0.15904000       0.04905000       0.98363000
    18  O          0.84096000       0.54905000       0.51637000
    19  O          0.84096000       0.95095000       0.01637000
    20  O          0.15904000       0.45095000       0.48363000
    21  O          0.16864000       0.37995000       0.91802000
    22  O          0.83136000       0.87995000       0.58198000
    23  O          0.83136000       0.62005000       0.08198000
    24  O          0.16864000       0.12005000       0.41802000
    25  O          0.59304000       0.32755000       0.89883000
    26  O          0.40696000       0.82755000       0.60117000
    27  O          0.40696000       0.67245000       0.10117000
    28  O          0.59304000       0.17245000       0.39883000
    29  C          0.13025000       0.92423000       0.64113000
    30  C          0.86975000       0.42423000       0.85887000
    31  C          0.86975000       0.07577000       0.35887000
    32  C          0.13025000       0.57577000       0.14113000
    33  C          0.16116000       0.80003000       0.71894000
    34  C          0.83884000       0.30003000       0.78106000
    35  C          0.83884000       0.19997000       0.28106000
    36  C          0.16116000       0.69997000       0.21894000
    37  H          0.16850000       0.66300000       0.71110000
    38  H          0.83150000       0.16300000       0.78890000
    39  H          0.83150000       0.33700000       0.28890000
    40  H          0.16850000       0.83700000       0.21110000
    41  C          0.18055000       0.87433000       0.80484000
    42  C          0.81945000       0.37433000       0.69516000
    43  C          0.81945000       0.12567000       0.19516000
    44  C          0.18055000       0.62567000       0.30484000
    45  H          0.20310000       0.78960000       0.85590000
    46  H          0.79690000       0.28960000       0.64410000
    47  H          0.79690000       0.21040000       0.14410000
    48  H          0.20310000       0.71040000       0.35590000
    49  C          0.16675000       0.07697000       0.81653000
    50  C          0.83325000       0.57697000       0.68347000
    51  C          0.83325000       0.92303000       0.18347000
    52  C          0.16675000       0.42303000       0.31653000
    53  C          0.13225000       0.20017000       0.74113000
    54  C          0.86775000       0.70017000       0.75887000
    55  C          0.86775000       0.79983000       0.25887000
    56  C          0.13225000       0.29983000       0.24113000
    57  H          0.12130000       0.33630000       0.74890000
    58  H          0.87870000       0.83630000       0.75110000
    59  H          0.87870000       0.66370000       0.25110000
    60  H          0.12130000       0.16370000       0.24890000
    61  C          0.11385000       0.12507000       0.65564000
    62  C          0.88615000       0.62507000       0.84436000
    63  C          0.88615000       0.87493000       0.34436000
    64  C          0.11385000       0.37493000       0.15564000
    65  H          0.08940000       0.21050000       0.60490000
    66  H          0.91060000       0.71050000       0.89510000
    67  H          0.91060000       0.78950000       0.39510000
    68  H          0.08940000       0.28950000       0.10490000
    69  C          0.42715000       0.26287000       0.93033000
    70  C          0.57285000       0.76287000       0.56967000
    71  C          0.57285000       0.73713000       0.06967000
    72  C          0.42715000       0.23713000       0.43033000
    73  C          0.40965000       0.44257000       0.88033000
    74  C          0.59035000       0.94257000       0.61967000
    75  C          0.59035000       0.55743000       0.11967000
    76  C          0.40965000       0.05743000       0.38033000
    77  H          0.33910000       0.52090000       0.86240000
    78  H          0.66090000       0.02090000       0.63760000
    79  H          0.66090000       0.47910000       0.13760000
    80  H          0.33910000       0.97910000       0.36240000
    81  C          0.51535000       0.47507000       0.86454000
    82  C          0.48465000       0.97507000       0.63546000
    83  C          0.48465000       0.52493000       0.13546000
    84  C          0.51535000       0.02493000       0.36454000
    85  C          0.55996000       0.63087000       0.81394000
    86  C          0.44004000       0.13087000       0.68606000
    87  C          0.44004000       0.36913000       0.18606000
    88  C          0.55996000       0.86913000       0.31394000
    89  H          0.49680000       0.72930000       0.79130000
    90  H          0.50320000       0.22930000       0.70870000
    91  H          0.50320000       0.27070000       0.20870000
    92  H          0.49680000       0.77070000       0.29130000
    93  H          0.58070000       0.57150000       0.76260000
    94  H          0.41930000       0.07150000       0.73740000
    95  H          0.41930000       0.42850000       0.23740000
    96  H          0.58070000       0.92850000       0.26260000
    97  H          0.63120000       0.69360000       0.85460000
    98  H          0.36880000       0.19360000       0.64540000
    99  H          0.36880000       0.30640000       0.14540000
   100  H          0.63120000       0.80640000       0.35460000
   101  H          0.12360000       0.93590000       0.51550000
   102  H          0.87640000       0.43590000       0.98450000
   103  H          0.87640000       0.06410000       0.48450000
   104  H          0.12360000       0.56410000       0.01550000
   105  H          0.38470000       0.04880000       0.00460000
   106  H          0.61530000       0.54880000       0.49540000
   107  H          0.61530000       0.95120000      -0.00460000
   108  H          0.38470000       0.45120000       0.50460000
   109  H          0.12810000       0.73184000       0.55490000
   110  H          0.87190000       0.23184000       0.94510000
   111  H          0.87190000       0.26816000       0.44510000
   112  H          0.12810000       0.76816000       0.05490000
