data_SOBPEE02
_symmetry_space_group_name_H-M    'P1'
_symmetry_Int_Tables_number       1
loop_
_symmetry_equiv_pos_site_id
_symmetry_equiv_pos_as_xyz
1 x,y,z
_cell_length_a                   8.39758
_cell_length_b                   10.489618
_cell_length_c                   17.3772
_cell_angle_alpha                92.66712
_cell_angle_beta                 98.0499
_cell_angle_gamma                108.19612
loop_
_atom_site_label
_atom_site_type_symbol
_atom_site_fract_x
_atom_site_fract_y
_atom_site_fract_z
     1  O          0.79375000       0.58523000       0.02207190
     2  O          0.20625000       0.41477000       0.97792810
     3  O          0.22314000       0.19993000       0.22916180
     4  O          0.77686000       0.80007000       0.77083820
     5  N          0.59255000       0.56824000       0.22062000
     6  N          0.40745000       0.43176000       0.77938000
     7  N          0.60095000       0.46814000       0.09502000
     8  N          0.39905000       0.53186000       0.90498000
     9  N          0.41095000       0.35114000       0.16982000
    10  N          0.58905000       0.64886000       0.83018000
    11  N          0.36426000       0.40444000       0.29443000
    12  N          0.63574000       0.59556000       0.70557000
    13  C          0.54086000       0.46965000       0.16293000
    14  C          0.45914000       0.53035000       0.83707000
    15  C          0.72666000       0.57855000       0.08693000
    16  C          0.27334000       0.42145000       0.91307000
    17  C          0.79197000       0.68895000       0.14383000
    18  C          0.20803000       0.31105000       0.85617000
    19  C          0.72106000       0.67935000       0.21003000
    20  C          0.27894000       0.32065000       0.78997000
    21  C          0.32877000       0.31605000       0.23253000
    22  C          0.67123000       0.68395000       0.76747000
    23  C          0.27248000       0.38125000       0.36033000
    24  C          0.72752000       0.61875000       0.63967000
    25  C          0.31068000       0.50966000       0.41053000
    26  C          0.68932000       0.49034000       0.58947000
    27  C          0.22219000       0.49477000       0.48133000
    28  C          0.77781000       0.50523000       0.51867000
    29  C          0.26551000       0.62649000       0.53204000
    30  C          0.73449000       0.37351000       0.46796000
    31  C          0.77596000       0.78825000       0.27523000
    32  C          0.22404000       0.21175000       0.72477000
    33  C          0.74277000       0.75915000       0.34993000
    34  C          0.25723000       0.24085000       0.65007000
    35  C          0.79438000       0.86075000       0.41133000
    36  C          0.20562000       0.13925000       0.58867000
    37  C          0.87527000      -0.00815000       0.39813000
    38  C          0.12473000       0.00815000       0.60187000
    39  C          0.91057000       0.02155000       0.32533000
    40  C          0.08943000       0.97845000       0.67467000
    41  C          0.86217000       0.92105000       0.26463000
    42  C          0.13783000       0.07895000       0.73537000
    43  H          0.75660000       0.49550000       0.98470000
    44  H          0.24340000       0.50450000       0.01530000
    45  H          0.88660000       0.76540000       0.13420000
    46  H          0.11340000       0.23460000       0.86580000
    47  H          0.39260000       0.28050000       0.12730000
    48  H          0.60740000       0.71950000       0.87270000
    49  H          0.42770000       0.48350000       0.29030000
    50  H          0.57230000       0.51650000       0.70970000
    51  H          0.14760000       0.34250000       0.34330000
    52  H          0.85240000       0.65750000       0.65670000
    53  H          0.31260000       0.31240000       0.39120000
    54  H          0.68740000       0.68760000       0.60880000
    55  H          0.27360000       0.57650000       0.38330000
    56  H          0.72640000       0.42350000       0.61670000
    57  H          0.42870000       0.54450000       0.42730000
    58  H          0.57130000       0.45550000       0.57270000
    59  H          0.09370000       0.46550000       0.46430000
    60  H          0.90630000       0.53450000       0.53570000
    61  H          0.25370000       0.42850000       0.51130000
    62  H          0.74630000       0.57150000       0.48870000
    63  H          0.20710000       0.68370000       0.50540000
    64  H          0.79290000       0.31630000       0.49460000
    65  H          0.38110000       0.64480000       0.55140000
    66  H          0.61890000       0.35520000       0.44860000
    67  H          0.21790000       0.61280000       0.58340000
    68  H          0.78210000       0.38720000       0.41660000
    69  H          0.71060000       0.67350000       0.35930000
    70  H          0.28940000       0.32650000       0.64070000
    71  H          0.76560000       0.83850000       0.46230000
    72  H          0.23440000       0.16150000       0.53770000
    73  H          0.90660000       0.06050000       0.44230000
    74  H          0.09340000       0.93950000       0.55770000
    75  H          0.95660000       0.11850000       0.31320000
    76  H          0.04340000       0.88150000       0.68680000
    77  H          0.87960000       0.94040000       0.21420000
    78  H          0.12040000       0.05960000       0.78580000
    79  O          0.11964000      -0.00397000       0.12372180
    80  O          0.88036000       0.00397000       0.87627820
    81  O          0.70415000       0.37993000       0.92120190
    82  O          0.29585000       0.62007000       0.07879810
    83  N          0.33525000       0.01264000       0.92882000
    84  N          0.66475000      -0.01264000       0.07118000
    85  N          0.30985000       0.11624000       0.05052000
    86  N          0.69015000       0.88376000       0.94948000
    87  N          0.50235000       0.23174000       0.97632000
    88  N          0.49765000       0.76826000       0.02368000
    89  N          0.56776000       0.17634000       0.85582000
    90  N          0.43224000       0.82366000       0.14418000
    91  C          0.37686000       0.11435000       0.98453000
    92  C          0.62314000       0.88565000       0.01547000
    93  C          0.19086000       0.00235000       0.06013000
    94  C          0.80914000      -0.00235000       0.93987000
    95  C          0.13947000       0.88955000       0.00633000
    96  C          0.86053000       0.11045000      -0.00633000
    97  C          0.21176000       0.89625000       0.94063000
    98  C          0.78824000       0.10375000       0.05937000
    99  C          0.59536000       0.26565000       0.91643000
   100  C          0.40464000       0.73435000       0.08357000
   101  C          0.65927000       0.20515000       0.79033000
   102  C          0.34073000       0.79485000       0.20967000
   103  C          0.60217000       0.08265000       0.72943000
   104  C          0.39783000       0.91735000       0.27057000
   105  C          0.68948000       0.10986000       0.65913000
   106  C          0.31052000       0.89014000       0.34087000
   107  C          0.63861000      -0.01093000       0.60014000
   108  C          0.36139000       0.01093000       0.39986000
   109  C          0.16916000       0.78415000       0.87763000
   110  C          0.83084000       0.21585000       0.12237000
   111  C          0.25847000       0.79495000       0.81613000
   112  C          0.74153000       0.20505000       0.18387000
   113  C          0.21767000       0.69075000       0.75783000
   114  C          0.78233000       0.30925000       0.24217000
   115  C          0.08697000       0.57315000       0.75973000
   116  C          0.91303000       0.42685000       0.24027000
   117  C         -0.00207000       0.56165000       0.82143000
   118  C          0.00207000       0.43835000       0.17857000
   119  C          0.03687000       0.66445000       0.88023000
   120  C          0.96313000       0.33555000       0.11977000
   121  H          0.15860000       0.07250000       0.15930000
   122  H          0.84140000       0.92750000       0.84070000
   123  H          0.06360000       0.81450000       0.01630000
   124  H          0.93640000       0.18550000       0.98370000
   125  H          0.52760000       0.30340000       0.01730000
   126  H          0.47240000       0.69660000       0.98270000
   127  H          0.49460000       0.09950000       0.85630000
   128  H          0.50540000       0.90050000       0.14370000
   129  H          0.78360000       0.22440000       0.81220000
   130  H          0.21640000       0.77560000       0.18780000
   131  H          0.63860000       0.28140000       0.76420000
   132  H          0.36140000       0.71860000       0.23580000
   133  H          0.62560000       0.00740000       0.75520000
   134  H          0.37440000      -0.00740000       0.24480000
   135  H          0.47960000       0.05740000       0.70920000
   136  H          0.52040000       0.94260000       0.29080000
   137  H          0.81770000       0.14750000       0.67330000
   138  H          0.18230000       0.85250000       0.32670000
   139  H          0.66160000       0.18050000       0.63330000
   140  H          0.33840000       0.81950000       0.36670000
   141  H          0.67180000       0.91960000       0.61930000
   142  H          0.32820000       0.08040000       0.38070000
   143  H          0.52280000       0.95760000       0.58440000
   144  H          0.47720000       0.04240000       0.41560000
   145  H          0.70680000       0.01660000       0.54930000
   146  H          0.29320000       0.98340000       0.45070000
   147  H          0.35460000       0.88250000       0.81620000
   148  H          0.64540000       0.11750000       0.18380000
   149  H          0.29260000       0.70540000       0.71330000
   150  H          0.70740000       0.29460000       0.28670000
   151  H          0.06160000       0.49750000       0.71430000
   152  H          0.93840000       0.50250000       0.28570000
   153  H          0.91130000       0.48550000       0.82430000
   154  H          0.08870000       0.51450000       0.17570000
   155  H          0.96940000       0.64350000       0.92430000
   156  H          0.03060000       0.35650000       0.07570000
