data_SOBPEE01
_symmetry_space_group_name_H-M    'P1'
_symmetry_Int_Tables_number       1
loop_
_symmetry_equiv_pos_site_id
_symmetry_equiv_pos_as_xyz
1 x,y,z
_cell_length_a                   10.10407
_cell_length_b                   11.24681
_cell_length_c                   14.69269
_cell_angle_alpha                77.7107
_cell_angle_beta                 70.2866
_cell_angle_gamma                64.6676
loop_
_atom_site_label
_atom_site_type_symbol
_atom_site_fract_x
_atom_site_fract_y
_atom_site_fract_z
     1  O          0.74671180       0.75457140       0.96936890
     2  O          0.25328820       0.24542860       0.03063110
     3  O          0.93432190       0.12597150       0.18080120
     4  O          0.06567810       0.87402850       0.81919880
     5  N          0.92382000       0.50018170       0.17776130
     6  N          0.07618000       0.49981830       0.82223870
     7  N          0.80772190       0.54874170       0.04931120
     8  N          0.19227810       0.45125830       0.95068880
     9  N          0.87562000       0.34212180       0.12790130
    10  N          0.12438000       0.65787820       0.87209870
    11  N         -0.00158000       0.24736190       0.24967140
    12  N          0.00158000       0.75263810       0.75032860
    13  C          0.87002000       0.46932000       0.11937150
    14  C          0.12998000       0.53068000       0.88062850
    15  C          0.80462000       0.67032000       0.03720150
    16  C          0.19538000       0.32968000       0.96279850
    17  C          0.86193000       0.71362000       0.09286160
    18  C          0.13807000       0.28638000       0.90713840
    19  C          0.91932000       0.62532000       0.16436150
    20  C          0.08068000       0.37468000       0.83563850
    21  C          0.93792000       0.23342000       0.18737160
    22  C          0.06208000       0.76658000       0.81262840
    23  C          0.06763000       0.13702000       0.31350170
    24  C          0.93237000       0.86298000       0.68649830
    25  C          0.13933000       0.17912000       0.37028170
    26  C          0.86067000       0.82088000       0.62971830
    27  C          0.19993000       0.06992000       0.44473180
    28  C          0.80007000       0.93008000       0.55526820
    29  C          0.29103000       0.10293000       0.49242000
    30  C          0.70897000       0.89707000       0.50758000
    31  C          0.97792000       0.65902000       0.23112160
    32  C          0.02208000       0.34098000       0.76887840
    33  C          0.03683000       0.56502000       0.30108190
    34  C          0.96317000       0.43498000       0.69891810
    35  C          0.09473000       0.59553000       0.36203190
    36  C          0.90527000       0.40447000       0.63796810
    37  C          0.09483000       0.71953000       0.35454180
    38  C          0.90517000       0.28047000       0.64545820
    39  C          0.03643000       0.81413000       0.28579180
    40  C          0.96357000       0.18587000       0.71420820
    41  C          0.97843000       0.78412000       0.22418170
    42  C          0.02157000       0.21588000       0.77581830
    43  H          0.71130000       0.71930000       0.93738200
    44  H          0.28870000       0.28070000       0.06261800
    45  H          0.85630000       0.79720000       0.08191700
    46  H          0.14370000       0.20280000       0.91808300
    47  H          0.84030000       0.32220000       0.08581800
    48  H          0.15970000       0.67780000       0.91418200
    49  H          0.00330000       0.32330000       0.24451700
    50  H          0.99670000       0.67670000       0.75548300
    51  H          0.98930000       0.11020000       0.35761700
    52  H          0.01070000       0.88980000       0.64238300
    53  H          0.14530000       0.06320000       0.27381700
    54  H          0.85470000       0.93680000       0.72618300
    55  H          0.06430000       0.25820000       0.40071700
    56  H          0.93570000       0.74180000       0.59928300
    57  H          0.22530000       0.20020000       0.32571700
    58  H          0.77470000       0.79980000       0.67428300
    59  H          0.11630000       0.05420000       0.49461800
    60  H          0.88370000       0.94580000       0.50538200
    61  H          0.26730000       0.98670000       0.41241700
    62  H          0.73270000       0.01330000       0.58758300
    63  H          0.38530000       0.10930000       0.44320000
    64  H          0.61470000       0.89070000       0.55680000
    65  H          0.23330000       0.18830000       0.52320000
    66  H          0.76670000       0.81170000       0.47680000
    67  H          0.32630000       0.03330000       0.54220000
    68  H          0.67370000       0.96670000       0.45780000
    69  H          0.04530000       0.47830000       0.30281900
    70  H          0.95470000       0.52170000       0.69718100
    71  H          0.13730000       0.53030000       0.40920000
    72  H          0.86270000       0.46970000       0.59080000
    73  H          0.13930000       0.74220000       0.39641900
    74  H          0.86070000       0.25780000       0.60358100
    75  H          0.03930000       0.90230000       0.27751800
    76  H          0.96070000       0.09770000       0.72248200
    77  H          0.93630000       0.85720000       0.17601700
    78  H          0.06370000       0.14280000       0.82398300
    79  O          0.16455180       0.94777150       0.92829880
    80  O          0.83544820       0.05222850       0.07170120
    81  O          0.36846180       0.31527150       0.13260120
    82  O          0.63153820       0.68472850       0.86739880
    83  N          0.38302000       0.68229170       0.11628130
    84  N          0.61698000       0.31770830       0.88371870
    85  N          0.24522000       0.73641170      -0.00151130
    86  N          0.75478000       0.26358830       0.00151130
    87  N          0.32622000       0.52637180       0.07058130
    88  N          0.67378000       0.47362820       0.92941870
    89  N          0.45232000       0.43219190       0.19030140
    90  N          0.54768000       0.56780810       0.80969860
    91  C          0.31932000       0.65372000       0.06286150
    92  C          0.68068000       0.34628000       0.93713850
    93  C          0.23323000       0.86092000      -0.00904160
    94  C          0.76677000       0.13908000       0.00904160
    95  C          0.29053000       0.90332000       0.04699160
    96  C          0.70947000       0.09668000       0.95300840
    97  C          0.36682000       0.81002000       0.10809150
    98  C          0.63318000       0.18998000       0.89190850
    99  C          0.38352000       0.41922000       0.13316150
   100  C          0.61648000       0.58078000       0.86683850
   101  C          0.51103000       0.32662000       0.26070180
   102  C          0.48897000       0.67338000       0.73929820
   103  C          0.55203000       0.37812000       0.33025170
   104  C          0.44797000       0.62188000       0.66974830
   105  C          0.62183000       0.26932000       0.40203180
   106  C          0.37817000       0.73068000       0.59796820
   107  C          0.67853000       0.31703000       0.46562000
   108  C          0.32147000       0.68297000       0.53438000
   109  C          0.43622000       0.84202000       0.16971150
   110  C          0.56378000       0.15798000       0.83028850
   111  C          0.48183000       0.75332000       0.24602160
   112  C          0.51817000       0.24668000       0.75397840
   113  C          0.55083000       0.78053000       0.30164170
   114  C          0.44917000       0.21947000       0.69835830
   115  C          0.57213000       0.89843000       0.28288170
   116  C          0.42787000       0.10157000       0.71711830
   117  C          0.52483000      -0.01198000       0.20858180
   118  C          0.47517000       0.01198000       0.79141820
   119  C          0.45723000       0.96042000       0.15240170
   120  C          0.54277000       0.03958000       0.84759830
   121  H          0.12630000       0.91130000       0.89718100
   122  H          0.87370000       0.08870000       0.10281900
   123  H          0.27430000      -0.00980000       0.04091700
   124  H          0.72570000       0.00980000       0.95908300
   125  H          0.27830000       0.51220000       0.03141700
   126  H          0.72170000       0.48780000       0.96858300
   127  H          0.45530000       0.50930000       0.18711700
   128  H          0.54470000       0.49070000       0.81288300
   129  H          0.43130000       0.29220000       0.29991700
   130  H          0.56870000       0.70780000       0.70008300
   131  H          0.60230000       0.25320000       0.22721700
   132  H          0.39770000       0.74680000       0.77278300
   133  H          0.45930000       0.44720000       0.36671700
   134  H          0.54070000       0.55280000       0.63328300
   135  H          0.62430000       0.42020000       0.29251700
   136  H          0.37570000       0.57980000       0.70748300
   137  H          0.54330000       0.23420000       0.44501800
   138  H          0.45670000       0.76580000       0.55498200
   139  H          0.71130000       0.19130000       0.36801800
   140  H          0.28870000       0.80870000       0.63198200
   141  H          0.59130000       0.39130000       0.50720000
   142  H          0.40870000       0.60870000       0.49280000
   143  H          0.75530000       0.34830000       0.42620000
   144  H          0.24470000       0.65170000       0.57380000
   145  H          0.73030000       0.24030000       0.51020000
   146  H          0.26970000       0.75970000       0.48980000
   147  H          0.46530000       0.67220000       0.25991700
   148  H          0.53470000       0.32780000       0.74008300
   149  H          0.58430000       0.71720000       0.35551800
   150  H          0.41570000       0.28280000       0.64448200
   151  H          0.62630000       0.91520000       0.32281800
   152  H          0.37370000       0.08480000       0.67718200
   153  H          0.53530000       0.07220000       0.19931700
   154  H          0.46470000       0.92780000       0.80068300
   155  H          0.42530000       0.02220000       0.09951700
   156  H          0.57470000       0.97780000       0.90048300
