data_SOBPEE
_symmetry_space_group_name_H-M    'P1'
_symmetry_Int_Tables_number       1
loop_
_symmetry_equiv_pos_site_id
_symmetry_equiv_pos_as_xyz
1 x,y,z
_cell_length_a                   11.02591
_cell_length_b                   11.17561
_cell_length_c                   13.27231
_cell_angle_alpha                90.1876
_cell_angle_beta                 106.6957
_cell_angle_gamma                112.8088
loop_
_atom_site_label
_atom_site_type_symbol
_atom_site_fract_x
_atom_site_fract_y
_atom_site_fract_z
     1  O          0.27943000       0.06653000       0.03052000
     2  O          0.72057000       0.93347000       0.96948000
     3  O          0.43623000       0.62587000       0.80012000
     4  O          0.56377000       0.37413000       0.19988000
     5  N          0.43324000      -0.00413000       0.80483000
     6  N          0.56676000       0.00413000       0.19517000
     7  N          0.32614000       0.92317000       0.94013000
     8  N          0.67386000       0.07683000       0.05987000
     9  N          0.37574000       0.78297000       0.85043000
    10  N          0.62426000       0.21703000       0.14957000
    11  N          0.49104000       0.81106000       0.72373000
    12  N          0.50896000       0.18894000       0.27627000
    13  C          0.38014000       0.90756000       0.86373000
    14  C          0.61986000       0.09244000       0.13627000
    15  C          0.33034000       0.04274000       0.95653000
    16  C          0.66966000       0.95726000       0.04347000
    17  C          0.38685000       0.14474000       0.90104000
    18  C          0.61315000       0.85526000       0.09896000
    19  C          0.43744000       0.11674000       0.82463000
    20  C          0.56256000       0.88326000       0.17537000
    21  C          0.43705000       0.73696000       0.79034000
    22  C          0.56295000       0.26304000       0.20966000
    23  C          0.56835000       0.77375000       0.66554000
    24  C          0.43165000       0.22625000       0.33446000
    25  C          0.64155000       0.88595000       0.61294000
    26  C          0.35845000       0.11405000       0.38706000
    27  C          0.71745000       0.84645000       0.54764000
    28  C          0.28255000       0.15355000       0.45236000
    29  C          0.79777000       0.95864000       0.49685000
    30  C          0.20223000       0.04136000       0.50315000
    31  C          0.50044000       0.21654000       0.75933000
    32  C          0.49956000       0.78346000       0.24067000
    33  C          0.57475000       0.19254000       0.69924000
    34  C          0.42525000       0.80746000       0.30076000
    35  C          0.63535000       0.28605000       0.64024000
    36  C          0.36465000       0.71395000       0.35976000
    37  C          0.62015000       0.40305000       0.63954000
    38  C          0.37985000       0.59695000       0.36046000
    39  C          0.54575000       0.42724000       0.69844000
    40  C          0.45425000       0.57276000       0.30156000
    41  C          0.48515000       0.33374000       0.75774000
    42  C          0.51485000       0.66626000       0.24226000
    43  H          0.23850000      -0.01050000       0.05740000
    44  H          0.76150000       0.01050000       0.94260000
    45  H          0.38040000       0.22640000       0.91330000
    46  H          0.61960000       0.77360000       0.08670000
    47  H          0.34540000       0.72060000       0.89830000
    48  H          0.65460000       0.27940000       0.10170000
    49  H          0.49750000       0.89060000       0.72430000
    50  H          0.50250000       0.10940000       0.27570000
    51  H          0.64340000       0.74960000       0.72130000
    52  H          0.35660000       0.25040000       0.27870000
    53  H          0.50040000       0.69360000       0.61430000
    54  H          0.49960000       0.30640000       0.38570000
    55  H          0.71040000       0.95760000       0.66730000
    56  H          0.28960000       0.04240000       0.33270000
    57  H          0.57250000       0.91560000       0.56630000
    58  H          0.42750000       0.08440000       0.43370000
    59  H          0.77750000       0.80360000       0.59830000
    60  H          0.22250000       0.19640000       0.40170000
    61  H          0.64050000       0.77260000       0.49230000
    62  H          0.35950000       0.22740000       0.50770000
    63  H          0.86660000       0.03460000       0.55050000
    64  H          0.13340000       0.96540000       0.44950000
    65  H          0.73060000       0.00260000       0.44950000
    66  H          0.26940000      -0.00260000       0.55050000
    67  H          0.84060000       0.93040000       0.45350000
    68  H          0.15940000       0.06960000       0.54650000
    69  H          0.58940000       0.10040000       0.70430000
    70  H          0.41060000       0.89960000       0.29570000
    71  H          0.69140000       0.27140000       0.59730000
    72  H          0.30860000       0.72860000       0.40270000
    73  H          0.66650000       0.46640000       0.60040000
    74  H          0.33350000       0.53360000       0.39960000
    75  H          0.53350000       0.51340000       0.69730000
    76  H          0.46650000       0.48660000       0.30270000
    77  H          0.42840000       0.35140000       0.79930000
    78  H          0.57160000       0.64860000       0.20070000
    79  O          0.34943000       0.45013000       0.91778000
    80  O          0.65057000       0.54987000       0.08222000
    81  O          0.14583000       0.87503000       0.11852000
    82  O          0.85417000       0.12497000       0.88148000
    83  N          0.13414000       0.49953000       0.10313000
    84  N          0.86586000       0.50047000       0.89687000
    85  N          0.26734000       0.58043000       0.98497000
    86  N          0.73266000       0.41957000       0.01503000
    87  N          0.18674000       0.71013000       0.05493000
    88  N          0.81326000       0.28987000       0.94507000
    89  N          0.05784000       0.67604000       0.17213000
    90  N          0.94216000       0.32396000       0.82787000
    91  C          0.19495000       0.59014000       0.04923000
    92  C          0.80505000       0.40986000       0.95077000
    93  C          0.28195000       0.46784000       0.98087000
    94  C          0.71805000       0.53216000       0.01913000
    95  C          0.22885000       0.36794000       0.03894000
    96  C          0.77115000       0.63206000       0.96106000
    97  C          0.15195000       0.38594000       0.09783000
    98  C          0.84805000       0.61406000       0.90217000
    99  C          0.13014000       0.75844000       0.11733000
   100  C          0.86986000       0.24156000       0.88267000
   101  C         -0.00175000       0.72075000       0.24144000
   102  C          0.00175000       0.27925000       0.75856000
   103  C          0.94585000       0.61715000       0.30904000
   104  C          0.05415000       0.38285000       0.69096000
   105  C          0.87914000       0.65965000       0.38134000
   106  C          0.12086000       0.34035000       0.61866000
   107  C          0.81933000       0.55626000       0.44755000
   108  C          0.18067000       0.44374000       0.55245000
   109  C          0.08294000       0.28494000       0.15843000
   110  C          0.91706000       0.71506000       0.84157000
   111  C          0.02975000       0.31525000       0.23454000
   112  C          0.97025000       0.68475000       0.76546000
   113  C          0.96125000       0.21895000       0.28824000
   114  C          0.03875000       0.78105000       0.71176000
   115  C          0.94545000       0.09235000       0.26744000
   116  C          0.05455000       0.90765000       0.73256000
   117  C         -0.00395000       0.06005000       0.19264000
   118  C          0.00395000       0.93995000       0.80736000
   119  C          0.06445000       0.15385000       0.13874000
   120  C          0.93555000       0.84615000       0.86126000
   121  H          0.38150000       0.52350000       0.87960000
   122  H          0.61850000       0.47650000       0.12040000
   123  H          0.24440000       0.29140000       0.04030000
   124  H          0.75560000       0.70860000       0.95970000
   125  H          0.23340000       0.77340000       0.01730000
   126  H          0.76660000       0.22660000       0.98270000
   127  H          0.05750000       0.59840000       0.17530000
   128  H          0.94250000       0.40160000       0.82470000
   129  H          0.92160000       0.75040000       0.19430000
   130  H          0.07840000       0.24960000       0.80570000
   131  H          0.06050000       0.80040000       0.28830000
   132  H          0.93950000       0.19960000       0.71170000
   133  H          0.01450000       0.58640000       0.34940000
   134  H         -0.01450000       0.41360000       0.65060000
   135  H          0.87850000       0.53340000       0.26230000
   136  H          0.12150000       0.46660000       0.73770000
   137  H          0.95250000       0.74750000       0.42540000
   138  H          0.04750000       0.25250000       0.57460000
   139  H          0.79850000       0.67950000       0.32840000
   140  H          0.20150000       0.32050000       0.67160000
   141  H          0.89440000       0.52560000       0.48940000
   142  H          0.10560000       0.47440000       0.51060000
   143  H          0.75240000       0.47760000       0.40350000
   144  H          0.24760000       0.52240000       0.59650000
   145  H          0.78740000       0.59260000       0.49650000
   146  H          0.21260000       0.40740000       0.50350000
   147  H          0.03640000       0.40440000       0.24530000
   148  H          0.96360000       0.59560000       0.75470000
   149  H          0.92750000       0.24440000       0.34330000
   150  H          0.07250000       0.75560000       0.65670000
   151  H          0.89450000       0.03240000       0.30640000
   152  H          0.10550000       0.96760000       0.69360000
   153  H         -0.00750000       0.97360000       0.18030000
   154  H          0.00750000       0.02640000       0.81970000
   155  H          0.09150000       0.13040000       0.08330000
   156  H          0.90850000       0.86960000       0.91670000
