data_SORFOY01
_symmetry_space_group_name_H-M    'P1'
_symmetry_Int_Tables_number       1
loop_
_symmetry_equiv_pos_site_id
_symmetry_equiv_pos_as_xyz
1 x,y,z
_cell_length_a                   8.045801
_cell_length_b                   10.308301
_cell_length_c                   15.01682
_cell_angle_alpha                90.0
_cell_angle_beta                 93.60101
_cell_angle_gamma                90.0
loop_
_atom_site_label
_atom_site_type_symbol
_atom_site_fract_x
_atom_site_fract_y
_atom_site_fract_z
     1  C          0.84402830       0.95271130       0.33850900
     2  C          0.15597170       0.45271130       0.16149100
     3  C          0.15597170       0.04728870       0.66149100
     4  C          0.84402830       0.54728870       0.83850900
     5  H          0.78776000       0.02700300       0.35475700
     6  H          0.21224000       0.52700300       0.14524300
     7  H          0.21224000       0.97299700       0.64524300
     8  H          0.78776000       0.47299700       0.85475700
     9  C          0.91258840       0.87424130       0.40554800
    10  C          0.08741160       0.37424130       0.09445200
    11  C          0.08741160       0.12575870       0.59445200
    12  C          0.91258840       0.62575870       0.90554800
    13  H          0.90268000       0.89606200       0.46506100
    14  H          0.09732000       0.39606200       0.03493900
    15  H          0.09732000       0.10393800       0.53493900
    16  H          0.90268000       0.60393800       0.96506100
    17  C         -0.00368130       0.76263110       0.38328700
    18  C          0.00368130       0.26263110       0.11671300
    19  C          0.00368130       0.23736890       0.61671300
    20  C         -0.00368130       0.73736890       0.88328700
    21  C          0.00308150       0.73461120       0.29372800
    22  C         -0.00308150       0.23461120       0.20627200
    23  C         -0.00308150       0.26538880       0.70627200
    24  C          0.00308150       0.76538880       0.79372800
    25  H          0.05489500       0.65928900       0.27560500
    26  H          0.94510500       0.15928900       0.22439500
    27  H          0.94510500       0.34071100       0.72439500
    28  H          0.05489500       0.84071100       0.77560500
    29  C          0.93202840       0.81967120       0.23130800
    30  C          0.06797160       0.31967120       0.26869200
    31  C          0.06797160       0.18032880       0.76869200
    32  C          0.93202840       0.68032880       0.73130800
    33  H          0.93943700       0.79973500       0.17128100
    34  H          0.06056300       0.29973500       0.32871900
    35  H          0.06056300       0.20026500       0.82871900
    36  H          0.93943700       0.70026500       0.67128100
    37  C          0.08105140       0.68479120       0.45803700
    38  C          0.91894860       0.18479120       0.04196300
    39  C          0.91894860       0.31520880       0.54196300
    40  C          0.08105140       0.81520880       0.95803700
    41  C          0.32679140       0.40634120       0.46790700
    42  C          0.67320860       0.90634120       0.03209300
    43  C          0.67320860       0.59365880       0.53209300
    44  C          0.32679140       0.09365880       0.96790700
    45  H          0.32801600       0.39316000       0.40667800
    46  H          0.67198400       0.89316000       0.09332200
    47  H          0.67198400       0.60684000       0.59332200
    48  H          0.32801600       0.10684000       0.90667800
    49  C          0.41738140       0.31922110       0.52813700
    50  C          0.58261860       0.81922110       0.97186300
    51  C          0.58261860       0.68077890       0.47186300
    52  C          0.41738140       0.18077890       0.02813700
    53  C          0.50437150       0.21094120       0.51210800
    54  C          0.49562850       0.71094120       0.98789200
    55  C          0.49562850       0.78905880       0.48789200
    56  C          0.50437150       0.28905880       0.01210800
    57  H          0.52169600       0.17541600       0.45651200
    58  H          0.47830400       0.67541600       0.04348800
    59  H          0.47830400       0.82458400       0.54348800
    60  H          0.52169600       0.32458400       0.95651200
    61  C          0.56520140       0.16087110       0.59717800
    62  C          0.43479860       0.66087110       0.90282200
    63  C          0.43479860       0.83912890       0.40282200
    64  C          0.56520140       0.33912890       0.09717800
    65  C          0.65881160       0.05385120       0.62852100
    66  C          0.34118840       0.55385120       0.87147900
    67  C          0.34118840       0.94614880       0.37147900
    68  C          0.65881160       0.44614880       0.12852100
    69  H          0.69822400      -0.00654800       0.58895400
    70  H          0.30177600       0.49345200       0.91104600
    71  H          0.30177600       0.00654800       0.41104600
    72  H          0.69822400       0.50654800       0.08895400
    73  C          0.69119160       0.03993130       0.71889100
    74  C          0.30880840       0.53993130       0.78110900
    75  C          0.30880840       0.96006870       0.28110900
    76  C          0.69119160       0.46006870       0.21889100
    77  H          0.75172100       0.96835700       0.74026400
    78  H          0.24827900       0.46835700       0.75973600
    79  H          0.24827900       0.03164300       0.25973600
    80  H          0.75172100       0.53164300       0.24026400
    81  C          0.63594170       0.12991150       0.77925900
    82  C          0.36405830       0.62991150       0.72074100
    83  C          0.36405830       0.87008850       0.22074100
    84  C          0.63594170       0.37008850       0.27925900
    85  H          0.66113900       0.11802700       0.83999100
    86  H          0.33886100       0.61802700       0.66000900
    87  H          0.33886100       0.88197300       0.16000900
    88  H          0.66113900       0.38197300       0.33999100
    89  C          0.54429170       0.23656140       0.75036800
    90  C          0.45570830       0.73656140       0.74963200
    91  C          0.45570830       0.76343860       0.24963200
    92  C          0.54429170       0.26343860       0.25036800
    93  H          0.50738400       0.29777400       0.79010300
    94  H          0.49261600       0.79777400       0.70989700
    95  H          0.49261600       0.70222600       0.20989700
    96  H          0.50738400       0.20222600       0.29010300
    97  C          0.51006140       0.24790110       0.65945700
    98  C          0.48993860       0.74790110       0.84054300
    99  C          0.48993860       0.75209890       0.34054300
   100  C          0.51006140       0.25209890       0.15945700
   101  N          0.85364870       0.92835100       0.25162700
   102  N          0.14635130       0.42835100       0.24837300
   103  N          0.14635130       0.07164900       0.74837300
   104  N          0.85364870       0.57164900       0.75162700
   105  N          0.16126120       0.57604100       0.43295600
   106  N          0.83873880       0.07604100       0.06704400
   107  N          0.83873880       0.42395900       0.56704400
   108  N          0.16126120       0.92395900       0.93295600
   109  N          0.24475120       0.50151900       0.49748600
   110  N          0.75524880       0.00151900       0.00251400
   111  N          0.75524880       0.49848100       0.50251400
   112  N          0.24475120      -0.00151900      -0.00251400
   113  O          0.08010130       0.72141100       0.53490500
   114  O          0.91989870       0.22141100       0.96509500
   115  O          0.91989870       0.27858900       0.46509500
   116  O          0.08010130       0.77858900       0.03490500
   117  O          0.41859100       0.34558800       0.61803500
   118  O          0.58140900       0.84558800       0.88196500
   119  O          0.58140900       0.65441200       0.38196500
   120  O          0.41859100       0.15441200       0.11803500
   121  H          0.16071800       0.55101400       0.37691000
   122  H          0.83928200       0.05101400       0.12309000
   123  H          0.83928200       0.44898600       0.62309000
   124  H          0.16071800       0.94898600       0.87691000
