data_SORFOY02
_symmetry_space_group_name_H-M    'P1'
_symmetry_Int_Tables_number       1
loop_
_symmetry_equiv_pos_site_id
_symmetry_equiv_pos_as_xyz
1 x,y,z
_cell_length_a                   7.581101
_cell_length_b                   11.07094
_cell_length_c                   15.16195
_cell_angle_alpha                82.7173
_cell_angle_beta                 81.7043
_cell_angle_gamma                73.1593
loop_
_atom_site_label
_atom_site_type_symbol
_atom_site_fract_x
_atom_site_fract_y
_atom_site_fract_z
     1  O          0.13086150       0.83835100       0.11403600
     2  O          0.86913850       0.16164900       0.88596400
     3  O          0.31075160       0.23542900       0.02856600
     4  O          0.68924840       0.76457100       0.97143400
     5  N          0.25525170       0.01469100      -0.00588300
     6  N          0.74474830       0.98530900       0.00588300
     7  N          0.31457170       0.09701100       0.92845700
     8  N          0.68542830       0.90298900       0.07154300
     9  H          0.33634500       0.07996100       0.87348100
    10  H          0.66365500       0.92003900       0.12651900
    11  N          0.50807180       0.46457110       0.74058800
    12  N          0.49192820       0.53542890       0.25941200
    13  C          0.17642000       0.81945880       0.02449900
    14  C          0.82358000       0.18054120       0.97550100
    15  C          0.16192000       0.70554880       0.00719900
    16  C          0.83808000       0.29445120      -0.00719900
    17  H          0.18462900       0.67313200       0.95171100
    18  H          0.81537100       0.32686800       0.04828900
    19  C          0.10472000       0.64510870       0.09135900
    20  C          0.89528000       0.35489130       0.90864100
    21  C          0.08662000       0.73093880       0.15435900
    22  C          0.91338000       0.26906120       0.84564100
    23  C          0.03232000       0.71009860       0.24483100
    24  C          0.96768000       0.28990140       0.75516900
    25  H          0.02078800       0.76998400       0.28467500
    26  H          0.97921200       0.23001600       0.71532500
    27  C         -0.00402000       0.59431850       0.27249100
    28  C          0.00402000       0.40568150       0.72750900
    29  H          0.95668800       0.57613000       0.33240400
    30  H          0.04331200       0.42387000       0.66759600
    31  C          0.01762000       0.50498860       0.21193110
    32  C          0.98238000       0.49501140       0.78806890
    33  H         -0.00468200       0.42753200       0.23297700
    34  H          0.00468200       0.57246800       0.76702300
    35  C          0.07122000       0.52747870       0.12131110
    36  C          0.92878000       0.47252130       0.87868890
    37  H          0.08454200       0.46684900       0.08179900
    38  H          0.91545800       0.53315100       0.91820100
    39  C          0.23462000       0.91638880       0.96492900
    40  C          0.76538000       0.08361120       0.03507100
    41  H          0.25771800       0.90748400       0.90381800
    42  H          0.74228200       0.09251600       0.09618200
    43  C          0.33822000       0.20566120       0.95180900
    44  C          0.66178000       0.79433880       0.04819100
    45  C          0.39939190       0.29155120       0.87521900
    46  C          0.60060810       0.70844880       0.12478100
    47  C          0.43172000       0.40182120       0.89605900
    48  C          0.56828000       0.59817880       0.10394100
    49  H          0.41665500       0.42035600       0.95526900
    50  H          0.58334500       0.57964400       0.04473100
    51  C          0.48652000       0.48346130       0.82780900
    52  C          0.51348000       0.51653870       0.17219100
    53  H          0.50979900       0.55563300       0.84319900
    54  H          0.49020100       0.44436700       0.15680100
    55  C          0.47262000       0.35988130       0.72095900
    56  C          0.52738000       0.64011870       0.27904100
    57  H          0.48286100       0.34589200       0.66099000
    58  H          0.51713900       0.65410800       0.33901000
    59  C          0.42132000       0.27097130       0.78492900
    60  C          0.57868000       0.72902870       0.21507100
    61  H          0.40190900       0.19855800       0.76771600
    62  H          0.59809100       0.80144200       0.23228400
    63  O          0.83052150       0.32328900       0.37834600
    64  O          0.16947850       0.67671100       0.62165400
    65  O          0.57428180       0.76466100       0.46284700
    66  O          0.42571820       0.23533900       0.53715300
    67  N          0.71169180       0.51020110       0.49771800
    68  N          0.28830820       0.48979890       0.50228200
    69  N          0.64154180       0.59116100       0.56433700
    70  N          0.35845820       0.40883900       0.43566300
    71  H          0.63729000       0.56239800       0.61978500
    72  H          0.36271000       0.43760200       0.38021500
    73  N          0.41715180       0.96397110       0.75347800
    74  N          0.58284820       0.03602890       0.24652200
    75  C          0.87522000       0.29972130       0.46499900
    76  C          0.12478000       0.70027870       0.53500100
    77  C         -0.00108000       0.18472130       0.47856900
    78  C          0.00108000       0.81527870       0.52143100
    79  H          0.04766400       0.14884800       0.53176700
    80  H          0.95233600       0.85115200       0.46823300
    81  C          0.03992000       0.12911120       0.39474900
    82  C          0.96008000       0.87088880       0.60525100
    83  C          0.93222000       0.21803120       0.33594900
    84  C          0.06778000       0.78196880       0.66405100
    85  C          0.93192000       0.20164130       0.24697900
    86  C          0.06808000       0.79835870       0.75302100
    87  H          0.85686400       0.26211600       0.20984900
    88  H          0.14313600       0.73788400       0.79015100
    89  C          0.04942000       0.09047140       0.21614100
    90  C          0.95058000       0.90952860       0.78385900
    91  H          0.05564900       0.07620600       0.15648100
    92  H          0.94435100       0.92379400       0.84351900
    93  C          0.15912000      -0.00104130       0.27339100
    94  C          0.84088000       0.00104130       0.72660900
    95  H          0.23561800       0.92482800       0.25086200
    96  H          0.76438200       0.07517200       0.74913800
    97  C          0.15642000       0.01607130       0.36266100
    98  C          0.84358000       0.98392870       0.63733900
    99  H          0.22941800       0.95467900       0.40006800
   100  H          0.77058200       0.04532100       0.59993200
   101  C          0.79252000       0.39635130       0.52601900
   102  C          0.20748000       0.60364870       0.47398100
   103  H          0.79796700       0.37539000       0.58711700
   104  H          0.20203300       0.62461000       0.41288300
   105  C          0.57932000       0.71749130       0.54023900
   106  C          0.42068000       0.28250870       0.45976100
   107  C          0.52142000       0.79903120       0.61746900
   108  C          0.47858000       0.20096880       0.38253100
   109  C          0.40792000       0.92162130       0.60286900
   110  C          0.59208000       0.07837870       0.39713100
   111  H          0.36526700       0.95086400       0.54741200
   112  H          0.63473300       0.04913600       0.45258800
   113  C          0.35922000      -0.00036880       0.67237900
   114  C          0.64078000       0.00036880       0.32762100
   115  H          0.28211800       0.08111900       0.66205300
   116  H          0.71788200       0.91888100       0.33794700
   117  C          0.53002000       0.84628130       0.76646900
   118  C          0.46998000       0.15371870       0.23353100
   119  H          0.57371100       0.82050500       0.82198200
   120  H          0.42628900       0.17949500       0.17801800
   121  C          0.58452000       0.76123120       0.70135900
   122  C          0.41548000       0.23876880       0.29864100
   123  H          0.66189700       0.68032000       0.71342700
   124  H          0.33810300       0.31968000       0.28657300
