data_SORFOY
_symmetry_space_group_name_H-M    'P1'
_symmetry_Int_Tables_number       1
loop_
_symmetry_equiv_pos_site_id
_symmetry_equiv_pos_as_xyz
1 x,y,z
_cell_length_a                   16.21775
_cell_length_b                   5.3270414
_cell_length_c                   14.92895
_cell_angle_alpha                90.0
_cell_angle_beta                 108.4743
_cell_angle_gamma                90.0
loop_
_atom_site_label
_atom_site_type_symbol
_atom_site_fract_x
_atom_site_fract_y
_atom_site_fract_z
     1  O          0.46973700       0.68482000       0.63502900
     2  O          0.53026300       0.18482000       0.86497100
     3  O          0.53026300       0.31518000       0.36497100
     4  O          0.46973700       0.81518000       0.13502900
     5  O          0.74304700       0.28812000       0.64620800
     6  O          0.25695300       0.78812000       0.85379200
     7  O          0.25695300       0.71188000       0.35379200
     8  O          0.74304700       0.21188000       0.14620800
     9  N          0.18350900       0.36403000       0.65086100
    10  N          0.81649100       0.86403000       0.84913900
    11  N          0.81649100       0.63597000       0.34913900
    12  N          0.18350900       0.13597000       0.15086100
    13  N          0.48613900       0.26013000       0.62783100
    14  N          0.51386100       0.76013000       0.87216900
    15  N          0.51386100       0.73987000       0.37216900
    16  N          0.48613900       0.23987000       0.12783100
    17  H          0.46127700       0.11169000       0.62319900
    18  H          0.53872300       0.61169000       0.87680100
    19  H          0.53872300       0.88831000       0.37680100
    20  H          0.46127700       0.38831000       0.12319900
    21  N          0.57097900       0.28203000       0.62769100
    22  N          0.42902100       0.78203000       0.87230900
    23  N          0.42902100       0.71797000       0.37230900
    24  N          0.57097900       0.21797000       0.12769100
    25  C          0.20543110       0.56243000       0.60806130
    26  C          0.79456890       0.06243000       0.89193870
    27  C          0.79456890       0.43757000       0.39193870
    28  C          0.20543110       0.93757000       0.10806130
    29  H          0.16178400       0.68320600       0.58000800
    30  H          0.83821600       0.18320600       0.91999200
    31  H          0.83821600       0.31679400       0.41999200
    32  H          0.16178400       0.81679400       0.08000800
    33  C          0.28792110       0.60153000       0.60238120
    34  C          0.71207890       0.10153000       0.89761880
    35  C          0.71207890       0.39847000       0.39761880
    36  C          0.28792110       0.89847000       0.10238120
    37  H          0.30025800       0.74624600       0.57168900
    38  H          0.69974200       0.24624600       0.92831100
    39  H          0.69974200       0.25375400       0.42831100
    40  H          0.30025800       0.75375400       0.07168900
    41  C          0.35251100       0.42583000       0.64224110
    42  C          0.64748900       0.92583000       0.85775890
    43  C          0.64748900       0.57417000       0.35775890
    44  C          0.35251100       0.07417000       0.14224110
    45  C          0.33125110       0.21893000       0.68733120
    46  C          0.66874890       0.71893000       0.81266880
    47  C          0.66874890       0.78107000       0.31266880
    48  C          0.33125110       0.28107000       0.18733120
    49  H          0.37356800       0.09493100       0.71573400
    50  H          0.62643200       0.59493100       0.78426600
    51  H          0.62643200       0.90506900       0.28426600
    52  H          0.37356800       0.40506900       0.21573400
    53  C          0.24677110       0.19803000       0.68979120
    54  C          0.75322890       0.69803000       0.81020880
    55  C          0.75322890       0.80197000       0.31020880
    56  C          0.24677110       0.30197000       0.18979120
    57  H          0.23285800       0.05673600       0.72111900
    58  H          0.76714200       0.55673600       0.77888100
    59  H          0.76714200       0.94326400       0.27888100
    60  H          0.23285800       0.44326400       0.22111900
    61  C          0.44159100       0.47133000       0.63524110
    62  C          0.55840900       0.97133000       0.86475890
    63  C          0.55840900       0.52867000       0.36475890
    64  C          0.44159100       0.02867000       0.13524110
    65  C          0.60452100       0.07943000       0.60760110
    66  C          0.39547900       0.57943000       0.89239890
    67  C          0.39547900       0.92057000       0.39239890
    68  C          0.60452100       0.42057000       0.10760110
    69  H          0.57078300       0.93033800       0.59237100
    70  H          0.42921700       0.43033800       0.90762900
    71  H          0.42921700       0.06966200       0.40762900
    72  H          0.57078300       0.56966200       0.09237100
    73  C          0.69379100       0.07973000       0.60833110
    74  C          0.30620900       0.57973000       0.89166890
    75  C          0.30620900       0.92027000       0.39166890
    76  C          0.69379100       0.42027000       0.10833110
    77  C          0.73975100       0.91017000       0.57588110
    78  C          0.26024900       0.41017000       0.92411890
    79  C          0.26024900       0.08983000       0.42411890
    80  C          0.73975100       0.58983000       0.07588110
    81  H          0.71957600       0.75267900       0.54755400
    82  H          0.28042400       0.25267900       0.95244600
    83  H          0.28042400       0.24732100       0.45244600
    84  H          0.71957600       0.74732100       0.04755400
    85  C          0.82516110       0.01533000       0.59266120
    86  C          0.17483890       0.51533000       0.90733880
    87  C          0.17483890      -0.01533000       0.40733880
    88  C          0.82516110       0.48467000       0.09266120
    89  C          0.90161110       0.94547000       0.57377120
    90  C          0.09838890       0.44547000       0.92622880
    91  C          0.09838890       0.05453000       0.42622880
    92  C          0.90161110       0.55453000       0.07377120
    93  H          0.90436300       0.79428100       0.54108400
    94  H          0.09563700       0.29428100       0.95891600
    95  H          0.09563700       0.20571900       0.45891600
    96  H          0.90436300       0.70571900       0.04108400
    97  C          0.97266110       0.10354000       0.60424120
    98  C          0.02733890       0.60354000       0.89575880
    99  C          0.02733890       0.89646000       0.39575880
   100  C          0.97266110       0.39646000       0.10424120
   101  H          0.02476800       0.05994100       0.59176400
   102  H          0.97523200       0.55994100       0.90823600
   103  H          0.97523200       0.94005900       0.40823600
   104  H          0.02476800       0.44005900       0.09176400
   105  C          0.96982110       0.32643000       0.65305120
   106  C          0.03017890       0.82643000       0.84694880
   107  C          0.03017890       0.67357000       0.34694880
   108  C          0.96982110       0.17357000       0.15305120
   109  H          0.02044200       0.42795700       0.67448300
   110  H          0.97955800       0.92795700       0.82551700
   111  H          0.97955800       0.57204300       0.32551700
   112  H          0.02044200       0.07204300       0.17448300
   113  C          0.89476110       0.40153000       0.67065120
   114  C          0.10523890       0.90153000       0.82934880
   115  C          0.10523890       0.59847000       0.32934880
   116  C          0.89476110       0.09847000       0.17065120
   117  H          0.89206400       0.55282000       0.70330300
   118  H          0.10793600       0.05282000       0.79669700
   119  H          0.10793600       0.44718000       0.29669700
   120  H          0.89206400       0.94718000       0.20330300
   121  C          0.82390110       0.24363000       0.63794120
   122  C          0.17609890       0.74363000       0.86205880
   123  C          0.17609890       0.75637000       0.36205880
   124  C          0.82390110       0.25637000       0.13794120
