data_SOVBOU18
_symmetry_space_group_name_H-M    'P1'
_symmetry_Int_Tables_number       1
loop_
_symmetry_equiv_pos_site_id
_symmetry_equiv_pos_as_xyz
1 x,y,z
_cell_length_a                   8.4386
_cell_length_b                   7.903214
_cell_length_c                   15.4251
_cell_angle_alpha                90.0
_cell_angle_beta                 103.188
_cell_angle_gamma                90.0
loop_
_atom_site_label
_atom_site_type_symbol
_atom_site_fract_x
_atom_site_fract_y
_atom_site_fract_z
     1  O          0.05941400       0.71769000       0.62079000
     2  O          0.94058600       0.21769000       0.87921000
     3  O          0.94058600       0.28231000       0.37921000
     4  O          0.05941400       0.78231000       0.12079000
     5  O          0.23801300       0.68329000       0.75019000
     6  O          0.76198700       0.18329000       0.74981000
     7  O          0.76198700       0.31671000       0.24981000
     8  O          0.23801300       0.81671000       0.25019000
     9  O          0.96808700       0.76158000       0.87258000
    10  O          0.03191300       0.26158000       0.62742000
    11  O          0.03191300       0.23842000       0.12742000
    12  O          0.96808700       0.73842000       0.37258000
    13  H          0.90570000       0.70150000       0.89260000
    14  H          0.09430000       0.20150000       0.60740000
    15  H          0.09430000       0.29850000       0.10740000
    16  H          0.90570000       0.79850000       0.39260000
    17  O          0.77378700       0.74589000       0.74439000
    18  O          0.22621300       0.24589000       0.75561000
    19  O          0.22621300       0.25411000       0.25561000
    20  O          0.77378700       0.75411000       0.24439000
    21  C          0.12020000       0.74931500       0.70101400
    22  C          0.87980000       0.24931500       0.79898600
    23  C          0.87980000       0.25068500       0.29898600
    24  C          0.12020000       0.75068500       0.20101400
    25  C          0.02841500       0.88071000       0.74411000
    26  C          0.97158500       0.38071000       0.75589000
    27  C          0.97158500       0.11929000       0.25589000
    28  C          0.02841500       0.61929000       0.24411000
    29  H          0.10530000       0.94450000       0.78840000
    30  H          0.89470000       0.44450000       0.71160000
    31  H          0.89470000       0.05550000       0.21160000
    32  H          0.10530000       0.55550000       0.28840000
    33  H          0.97230000       0.95920000       0.69910000
    34  H          0.02770000       0.45920000       0.80090000
    35  H          0.02770000       0.04080000       0.30090000
    36  H          0.97230000       0.54080000       0.19910000
    37  C          0.90480000       0.79311400       0.78811400
    38  C          0.09520000       0.29311400       0.71188600
    39  C          0.09520000       0.20688600       0.21188600
    40  C          0.90480000       0.70688600       0.28811400
    41  N          0.25931700       0.50961000       0.57361000
    42  N          0.74068300       0.00961000       0.92639000
    43  N          0.74068300       0.49039000       0.42639000
    44  N          0.25931700      -0.00961000       0.07361000
    45  H          0.19890000       0.58070000       0.59330000
    46  H          0.80110000       0.08070000       0.90670000
    47  H          0.80110000       0.41930000       0.40670000
    48  H          0.19890000       0.91930000       0.09330000
    49  N          0.77301600       0.94759000       0.41881100
    50  N          0.22698400       0.44759000       0.08118900
    51  N          0.22698400       0.05241000       0.58118900
    52  N          0.77301600       0.55241000       0.91881100
    53  C          0.38501800       0.44831100       0.62711200
    54  C          0.61498200       0.94831100       0.87288800
    55  C          0.61498200       0.55168900       0.37288800
    56  C          0.38501800       0.05168900       0.12711200
    57  H          0.40490000       0.47750000       0.68700000
    58  H          0.59510000       0.97750000       0.81300000
    59  H          0.59510000       0.52250000       0.31300000
    60  H          0.40490000       0.02250000       0.18700000
    61  C          0.49081700       0.34171000       0.59931100
    62  C          0.50918300       0.84171000       0.90068900
    63  C          0.50918300       0.65829000       0.40068900
    64  C          0.49081700       0.15829000       0.09931100
    65  H          0.58280000       0.30270000       0.63970000
    66  H          0.41720000       0.80270000       0.86030000
    67  H          0.41720000       0.69730000       0.36030000
    68  H          0.58280000       0.19730000       0.13970000
    69  C          0.46181800       0.29271100       0.51271200
    70  C          0.53818200       0.79271100       0.98728800
    71  C          0.53818200       0.70728900       0.48728800
    72  C          0.46181800       0.20728900       0.01271200
    73  C          0.32291700       0.35501100       0.45521200
    74  C          0.67708300       0.85501100       0.04478800
    75  C          0.67708300       0.64498900       0.54478800
    76  C          0.32291700       0.14498900       0.95521200
    77  H          0.29870000       0.32350000       0.39550000
    78  H          0.70130000       0.82350000       0.10450000
    79  H          0.70130000       0.67650000       0.60450000
    80  H          0.29870000       0.17650000       0.89550000
    81  C          0.21981700       0.46481000       0.48691100
    82  C          0.78018300       0.96481000       0.01308900
    83  C          0.78018300       0.53519000       0.51308900
    84  C          0.21981700       0.03519000       0.98691100
    85  H          0.12580000       0.50630000       0.44920000
    86  H          0.87420000       0.00630000       0.05080000
    87  H          0.87420000       0.49370000       0.55080000
    88  H          0.12580000      -0.00630000       0.94920000
    89  C          0.57831900       0.17991200       0.48231300
    90  C          0.42168100       0.67991200       0.01768700
    91  C          0.42168100       0.82008800       0.51768700
    92  C          0.57831900       0.32008800       0.98231300
    93  C          0.70421700       0.10791100       0.53431100
    94  C          0.29578300       0.60791100       0.96568900
    95  C          0.29578300       0.89208900       0.46568900
    96  C          0.70421700       0.39208900       0.03431100
    97  H          0.72680000       0.13260000       0.59490000
    98  H          0.27320000       0.63260000       0.90510000
    99  H          0.27320000       0.86740000       0.40510000
   100  H          0.72680000       0.36740000       0.09490000
   101  C          0.80451700      -0.00261100       0.50371100
   102  C          0.19548300       0.49738900      -0.00371100
   103  C          0.19548300       0.00261100       0.49628900
   104  C          0.80451700       0.50261100       0.00371100
   105  H          0.89670000       0.95620000       0.54310000
   106  H          0.10330000       0.45620000       0.95690000
   107  H          0.10330000       0.04380000       0.45690000
   108  H          0.89670000       0.54380000       0.04310000
   109  C          0.65151800       0.01611300       0.36821300
   110  C          0.34848200       0.51611300       0.13178700
   111  C          0.34848200      -0.01611300       0.63178700
   112  C          0.65151800       0.48388700       0.86821300
   113  H          0.63520000      -0.01120000       0.30820000
   114  H          0.36480000       0.48880000       0.19180000
   115  H          0.36480000       0.01120000       0.69180000
   116  H          0.63520000       0.51120000       0.80820000
   117  C          0.53701700       0.12811000       0.39001100
   118  C          0.46298300       0.62811000       0.10998900
   119  C          0.46298300       0.87189000       0.60998900
   120  C          0.53701700       0.37189000       0.89001100
   121  H          0.44450000       0.16510000       0.34920000
   122  H          0.55550000       0.66510000       0.15080000
   123  H          0.55550000       0.83490000       0.65080000
   124  H          0.44450000       0.33490000       0.84920000
