data_SOVBOU19
_symmetry_space_group_name_H-M    'P1'
_symmetry_Int_Tables_number       1
loop_
_symmetry_equiv_pos_site_id
_symmetry_equiv_pos_as_xyz
1 x,y,z
_cell_length_a                   8.4001
_cell_length_b                   7.8863
_cell_length_c                   15.38919
_cell_angle_alpha                90.0
_cell_angle_beta                 103.9314
_cell_angle_gamma                90.0
loop_
_atom_site_label
_atom_site_type_symbol
_atom_site_fract_x
_atom_site_fract_y
_atom_site_fract_z
     1  O          0.97058300       0.76041000       0.87751300
     2  O          0.02941700       0.26041000       0.62248700
     3  O          0.02941700       0.23959000       0.12248700
     4  O          0.97058300       0.73959000       0.37751300
     5  O          0.23841700       0.68141100       0.75111200
     6  O          0.76158300       0.18141100       0.74888800
     7  O          0.76158300       0.31858900       0.24888800
     8  O          0.23841700       0.81858900       0.25111200
     9  O          0.77538400       0.74941000       0.74471200
    10  O          0.22461600       0.24941000       0.75528800
    11  O          0.22461600       0.25059000       0.25528800
    12  O          0.77538400       0.75059000       0.24471200
    13  O          0.06601900       0.71791100       0.62041300
    14  O          0.93398100       0.21791100       0.87958700
    15  O          0.93398100       0.28208900       0.37958700
    16  O          0.06601900       0.78208900       0.12041300
    17  C          0.11830000       0.75171500       0.70020000
    18  C          0.88170000       0.25171500       0.79980000
    19  C          0.88170000       0.24828500       0.29980000
    20  C          0.11830000       0.74828500       0.20020000
    21  C          0.91770000       0.79221500       0.79420000
    22  C          0.08230000       0.29221500       0.70580000
    23  C          0.08230000       0.20778500       0.20580000
    24  C          0.91770000       0.70778500       0.29420000
    25  C          0.03031900       0.88451200       0.74471300
    26  C          0.96968100       0.38451200       0.75528700
    27  C          0.96968100       0.11548800       0.25528700
    28  C          0.03031900       0.61548800       0.24471300
    29  H          0.11030000       0.95180000       0.78660000
    30  H          0.88970000       0.45180000       0.71340000
    31  H          0.88970000       0.04820000       0.21340000
    32  H          0.11030000       0.54820000       0.28660000
    33  H          0.96610000       0.95980000       0.69980000
    34  H          0.03390000       0.45980000       0.80020000
    35  H          0.03390000       0.04020000       0.30020000
    36  H          0.96610000       0.54020000       0.19980000
    37  N          0.77220000       0.94938800       0.41751500
    38  N          0.22780000       0.44938800       0.08248500
    39  N          0.22780000       0.05061200       0.58248500
    40  N          0.77220000       0.55061200       0.91751500
    41  H          0.83280000       0.87820000       0.39810000
    42  H          0.16720000       0.37820000       0.10190000
    43  H          0.16720000       0.12180000       0.60190000
    44  H          0.83280000       0.62180000       0.89810000
    45  N          0.25920000       0.50931100       0.57361500
    46  N          0.74080000       0.00931100       0.92638500
    47  N          0.74080000       0.49068900       0.42638500
    48  N          0.25920000      -0.00931100       0.07361500
    49  H          0.19750000       0.57770000       0.59450000
    50  H          0.80250000       0.07770000       0.90550000
    51  H          0.80250000       0.42230000       0.40550000
    52  H          0.19750000       0.92230000       0.09450000
    53  C          0.32311900       0.35431200       0.45441500
    54  C          0.67688100       0.85431200       0.04558500
    55  C          0.67688100       0.64568800       0.54558500
    56  C          0.32311900       0.14568800       0.95441500
    57  H          0.29860000       0.32360000       0.39430000
    58  H          0.70140000       0.82360000       0.10570000
    59  H          0.70140000       0.67640000       0.60570000
    60  H          0.29860000       0.17640000       0.89430000
    61  C          0.80620000      -0.00571200       0.50311500
    62  C          0.19380000       0.49428800      -0.00311500
    63  C          0.19380000       0.00571200       0.49688500
    64  C          0.80620000       0.50571200       0.00311500
    65  H          0.89820000       0.94900000       0.54240000
    66  H          0.10180000       0.44900000       0.95760000
    67  H          0.10180000       0.05100000       0.45760000
    68  H          0.89820000       0.55100000       0.04240000
    69  C          0.38720000       0.44981400       0.62521700
    70  C          0.61280000       0.94981400       0.87478300
    71  C          0.61280000       0.55018600       0.37478300
    72  C          0.38720000       0.05018600       0.12521700
    73  H          0.40990000       0.48160000       0.68510000
    74  H          0.59010000       0.98160000       0.81490000
    75  H          0.59010000       0.51840000       0.31490000
    76  H          0.40990000       0.01840000       0.18510000
    77  C          0.49320000       0.34221300       0.59891500
    78  C          0.50680000       0.84221300       0.90108500
    79  C          0.50680000       0.65778700       0.40108500
    80  C          0.49320000       0.15778700       0.09891500
    81  H          0.58650000       0.30450000       0.64010000
    82  H          0.41350000       0.80450000       0.85990000
    83  H          0.41350000       0.69550000       0.35990000
    84  H          0.58650000       0.19550000       0.14010000
    85  C          0.46220000       0.29031200       0.51221600
    86  C          0.53780000       0.79031200       0.98778400
    87  C          0.53780000       0.70968800       0.48778400
    88  C          0.46220000       0.20968800       0.01221600
    89  C          0.64820000       0.01391300       0.36561700
    90  C          0.35180000       0.51391300       0.13438300
    91  C          0.35180000      -0.01391300       0.63438300
    92  C          0.64820000       0.48608700       0.86561700
    93  H          0.62480000      -0.01760000       0.30560000
    94  H          0.37520000       0.48240000       0.19440000
    95  H          0.37520000       0.01760000       0.69440000
    96  H          0.62480000       0.51760000       0.80560000
    97  C          0.21720000       0.46681000       0.48591400
    98  C          0.78280000       0.96681000       0.01408600
    99  C          0.78280000       0.53319000       0.51408600
   100  C          0.21720000       0.03319000       0.98591400
   101  H          0.12280000       0.50950000       0.44760000
   102  H          0.87720000       0.00950000       0.05240000
   103  H          0.87720000       0.49050000       0.55240000
   104  H          0.12280000      -0.00950000       0.94760000
   105  C          0.54320000       0.12901300       0.39161500
   106  C          0.45680000       0.62901300       0.10838500
   107  C          0.45680000       0.87098700       0.60838500
   108  C          0.54320000       0.37098700       0.89161500
   109  H          0.45280000       0.17260000       0.35020000
   110  H          0.54720000       0.67260000       0.14980000
   111  H          0.54720000       0.82740000       0.64980000
   112  H          0.45280000       0.32740000       0.85020000
   113  C          0.70820000       0.10701200       0.53501500
   114  C          0.29180000       0.60701200       0.96498500
   115  C          0.29180000       0.89298800       0.46498500
   116  C          0.70820000       0.39298800       0.03501500
   117  H          0.73280000       0.13540000       0.59550000
   118  H          0.26720000       0.63540000       0.90450000
   119  H          0.26720000       0.86460000       0.40450000
   120  H          0.73280000       0.36460000       0.09550000
   121  C          0.57520000       0.17591400       0.47851700
   122  C          0.42480000       0.67591400       0.02148300
   123  C          0.42480000       0.82408600       0.52148300
   124  C          0.57520000       0.32408600       0.97851700
