data_SOVBOU
_symmetry_space_group_name_H-M    'P1'
_symmetry_Int_Tables_number       1
loop_
_symmetry_equiv_pos_site_id
_symmetry_equiv_pos_as_xyz
1 x,y,z
_cell_length_a                   19.5798
_cell_length_b                   4.0852
_cell_length_c                   15.9676
_cell_angle_alpha                90.0
_cell_angle_beta                 104.832
_cell_angle_gamma                90.0
loop_
_atom_site_label
_atom_site_type_symbol
_atom_site_fract_x
_atom_site_fract_y
_atom_site_fract_z
     1  O          0.47349900       0.01965000       0.36214100
     2  O          0.52650100       0.01965000       0.13785900
     3  O          0.97349900       0.51965000       0.36214100
     4  O          0.02650100       0.51965000       0.13785900
     5  O          0.52650100      -0.01965000       0.63785900
     6  O          0.47349900      -0.01965000       0.86214100
     7  O          0.02650100       0.48035000       0.63785900
     8  O          0.97349900       0.48035000       0.86214100
     9  H          0.44456900       0.13945000       0.37591100
    10  H          0.55543100       0.13945000       0.12408900
    11  H          0.94456900       0.63945000       0.37591100
    12  H          0.05543100       0.63945000       0.12408900
    13  H          0.55543100       0.86055000       0.62408900
    14  H          0.44456900       0.86055000       0.87591100
    15  H          0.05543100       0.36055000       0.62408900
    16  H          0.94456900       0.36055000       0.87591100
    17  C          0.50000000       0.71089000       0.25000000
    18  C          0.00000000       0.21089000       0.25000000
    19  C          0.50000000       0.28911000       0.75000000
    20  C          0.00000000       0.78911000       0.75000000
    21  O          0.39095110      -0.01046000       0.23863110
    22  O          0.60904890      -0.01046000       0.26136890
    23  O          0.89095110       0.48954000       0.23863110
    24  O          0.10904890       0.48954000       0.26136890
    25  O          0.60904890       0.01046000       0.76136890
    26  O          0.39095110       0.01046000       0.73863110
    27  O          0.10904890       0.51046000       0.76136890
    28  O          0.89095110       0.51046000       0.73863110
    29  C          0.44833130       0.91954000       0.28264140
    30  C          0.55166870       0.91954000       0.21735860
    31  C          0.94833130       0.41954000       0.28264140
    32  C          0.05166870       0.41954000       0.21735860
    33  C          0.55166870       0.08046000       0.71735860
    34  C          0.44833130       0.08046000       0.78264140
    35  C          0.05166870       0.58046000       0.71735860
    36  C          0.94833130       0.58046000       0.78264140
    37  H          0.52671200       0.57163800       0.29931300
    38  H          0.47328800       0.57163800       0.20068700
    39  H          0.02671200       0.07163800       0.29931300
    40  H          0.97328800       0.07163800       0.20068700
    41  H          0.47328800       0.42836200       0.70068700
    42  H          0.52671200       0.42836200       0.79931300
    43  H          0.97328800       0.92836200       0.70068700
    44  H          0.02671200       0.92836200       0.79931300
    45  C          0.22232120       0.16836000       0.01727140
    46  C          0.77767880       0.16836000       0.48272860
    47  C          0.72232120       0.66836000       0.01727140
    48  C          0.27767880       0.66836000       0.48272860
    49  C          0.77767880       0.83164000       0.98272860
    50  C          0.22232120       0.83164000       0.51727140
    51  C          0.27767880       0.33164000       0.98272860
    52  C          0.72232120       0.33164000       0.51727140
    53  N          0.11884110       0.85824000       0.08154120
    54  N          0.88115890       0.85824000       0.41845880
    55  N          0.61884110       0.35824000       0.08154120
    56  N          0.38115890       0.35824000       0.41845880
    57  N          0.88115890       0.14176000       0.91845880
    58  N          0.11884110       0.14176000       0.58154120
    59  N          0.38115890       0.64176000       0.91845880
    60  N          0.61884110       0.64176000       0.58154120
    61  C          0.23523150       0.06708000       0.10212000
    62  C          0.76476850       0.06708000       0.39788000
    63  C          0.73523150       0.56708000       0.10212000
    64  C          0.26476850       0.56708000       0.39788000
    65  C          0.76476850       0.93292000       0.89788000
    66  C          0.23523150       0.93292000       0.60212000
    67  C          0.26476850       0.43292000       0.89788000
    68  C          0.73523150       0.43292000       0.60212000
    69  C          0.15517150       0.11339000       0.96618000
    70  C          0.84482850       0.11339000       0.53382000
    71  C          0.65517150       0.61339000       0.96618000
    72  C          0.34482850       0.61339000       0.53382000
    73  C          0.84482850       0.88661000       0.03382000
    74  C          0.15517150       0.88661000       0.46618000
    75  C          0.34482850       0.38661000       0.03382000
    76  C          0.65517150       0.38661000       0.46618000
    77  C          0.18275150       0.91522000       0.13132000
    78  C          0.81724850       0.91522000       0.36868000
    79  C          0.68275150       0.41522000       0.13132000
    80  C          0.31724850       0.41522000       0.36868000
    81  C          0.81724850       0.08478000       0.86868000
    82  C          0.18275150       0.08478000       0.63132000
    83  C          0.31724850       0.58478000       0.86868000
    84  C          0.68275150       0.58478000       0.63132000
    85  C          0.10582000       0.95801000       0.00032000
    86  C          0.89418000       0.95801000       0.49968000
    87  C          0.60582000       0.45801000       0.00032000
    88  C          0.39418000       0.45801000       0.49968000
    89  C          0.89418000       0.04199000      -0.00032000
    90  C          0.10582000       0.04199000       0.50032000
    91  C          0.39418000       0.54199000      -0.00032000
    92  C          0.60582000       0.54199000       0.50032000
    93  H          0.19091400       0.84653000       0.19151700
    94  H          0.80908600       0.84653000       0.30848300
    95  H          0.69091400       0.34653000       0.19151700
    96  H          0.30908600       0.34653000       0.30848300
    97  H          0.80908600       0.15347000       0.80848300
    98  H          0.19091400       0.15347000       0.69151700
    99  H          0.30908600       0.65347000       0.80848300
   100  H          0.69091400       0.65347000       0.69151700
   101  H          0.27981500       0.08367200       0.14091600
   102  H          0.72018500       0.08367200       0.35908400
   103  H          0.77981500       0.58367200       0.14091600
   104  H          0.22018500       0.58367200       0.35908400
   105  H          0.72018500       0.91632800       0.85908400
   106  H          0.27981500       0.91632800       0.64091600
   107  H          0.22018500       0.41632800       0.85908400
   108  H          0.77981500       0.41632800       0.64091600
   109  H          0.06001800       0.91380900       0.96388000
   110  H          0.93998200       0.91380900       0.53612000
   111  H          0.56001800       0.41380900       0.96388000
   112  H          0.43998200       0.41380900       0.53612000
   113  H          0.93998200       0.08619100       0.03612000
   114  H          0.06001800       0.08619100       0.46388000
   115  H          0.43998200       0.58619100       0.03612000
   116  H          0.56001800       0.58619100       0.46388000
   117  H          0.14381700       0.17358500       0.90587900
   118  H          0.85618300       0.17358500       0.59412100
   119  H          0.64381700       0.67358500       0.90587900
   120  H          0.35618300       0.67358500       0.59412100
   121  H          0.85618300       0.82641500       0.09412100
   122  H          0.14381700       0.82641500       0.40587900
   123  H          0.35618300       0.32641500       0.09412100
   124  H          0.64381700       0.32641500       0.40587900
