data_SOVBOU17
_symmetry_space_group_name_H-M    'P1'
_symmetry_Int_Tables_number       1
loop_
_symmetry_equiv_pos_site_id
_symmetry_equiv_pos_as_xyz
1 x,y,z
_cell_length_a                   8.4124
_cell_length_b                   7.966511
_cell_length_c                   15.5769
_cell_angle_alpha                90.0
_cell_angle_beta                 103.336
_cell_angle_gamma                90.0
loop_
_atom_site_label
_atom_site_type_symbol
_atom_site_fract_x
_atom_site_fract_y
_atom_site_fract_z
     1  O          0.96348900       0.75316000       0.87297000
     2  O          0.03651100       0.25316000       0.62703000
     3  O          0.03651100       0.24684000       0.12703000
     4  O          0.96348900       0.74684000       0.37297000
     5  O          0.23861100       0.68286000       0.75126000
     6  O          0.76138900       0.18286000       0.74874000
     7  O          0.76138900       0.31714000       0.24874000
     8  O          0.23861100       0.81714000       0.25126000
     9  O          0.77579000       0.73676000       0.74666000
    10  O          0.22421000       0.23676000       0.75334000
    11  O          0.22421000       0.26324000       0.25334000
    12  O          0.77579000       0.76324000       0.24666000
    13  O          0.06261000       0.72006000       0.62357000
    14  O          0.93739000       0.22006000       0.87643000
    15  O          0.93739000       0.27994000       0.37643000
    16  O          0.06261000       0.77994000       0.12357000
    17  H          0.11330000       0.64260000       0.60750000
    18  H          0.88670000       0.14260000       0.89250000
    19  H          0.88670000       0.35740000       0.39250000
    20  H          0.11330000       0.85740000       0.10750000
    21  C          0.12220000       0.74991000       0.70641300
    22  C          0.87780000       0.24991000       0.79358700
    23  C          0.87780000       0.25009000       0.29358700
    24  C          0.12220000       0.75009000       0.20641300
    25  C          0.91028200       0.78409000       0.79081200
    26  C          0.08971800       0.28409000       0.70918800
    27  C          0.08971800       0.21591000       0.20918800
    28  C          0.91028200       0.71591000       0.29081200
    29  C          0.02711000       0.87637000       0.74566000
    30  C          0.97289000       0.37637000       0.75434000
    31  C          0.97289000       0.12363000       0.25434000
    32  C          0.02711000       0.62363000       0.24566000
    33  H          0.96610000       0.94890000       0.69970000
    34  H          0.03390000       0.44890000       0.80030000
    35  H          0.03390000       0.05110000       0.30030000
    36  H          0.96610000       0.55110000       0.19970000
    37  H          0.10140000       0.94530000       0.78820000
    38  H          0.89860000       0.44530000       0.71180000
    39  H          0.89860000       0.05470000       0.21180000
    40  H          0.10140000       0.55470000       0.28820000
    41  N          0.77201200       0.95724000       0.42198000
    42  N          0.22798800       0.45724000       0.07802000
    43  N          0.22798800       0.04276000       0.57802000
    44  N          0.77201200       0.54276000       0.92198000
    45  H          0.83580000       0.88850000       0.40360000
    46  H          0.16420000       0.38850000       0.09640000
    47  H          0.16420000       0.11150000       0.59640000
    48  H          0.83580000       0.61150000       0.90360000
    49  N          0.25361300       0.51197000       0.57289000
    50  N          0.74638700       0.01197000       0.92711000
    51  N          0.74638700       0.48803000       0.42711000
    52  N          0.25361300      -0.01197000       0.07289000
    53  C          0.32171200       0.35667000       0.45628000
    54  C          0.67828800       0.85667000       0.04372000
    55  C          0.67828800       0.64333000       0.54372000
    56  C          0.32171200       0.14333000       0.95628000
    57  H          0.29770000       0.32550000       0.39710000
    58  H          0.70230000       0.82550000       0.10290000
    59  H          0.70230000       0.67450000       0.60290000
    60  H          0.29770000       0.17450000       0.89710000
    61  C          0.80471300       0.00037000       0.50649000
    62  C          0.19528700       0.50037000      -0.00649000
    63  C          0.19528700      -0.00037000       0.49351000
    64  C          0.80471300       0.49963000       0.00649000
    65  H          0.89480000       0.95540000       0.54580000
    66  H          0.10520000       0.45540000       0.95420000
    67  H          0.10520000       0.04460000       0.45420000
    68  H          0.89480000       0.54460000       0.04580000
    69  C          0.38451300       0.45148000       0.62799000
    70  C          0.61548700       0.95148000       0.87201000
    71  C          0.61548700       0.54852000       0.37201000
    72  C          0.38451300       0.04852000       0.12799000
    73  H          0.40640000       0.48150000       0.68710000
    74  H          0.59360000       0.98150000       0.81290000
    75  H          0.59360000       0.51850000       0.31290000
    76  H          0.40640000       0.01850000       0.18710000
    77  C          0.48921200       0.34397000       0.59829000
    78  C          0.51078800       0.84397000       0.90171000
    79  C          0.51078800       0.65603000       0.40171000
    80  C          0.48921200       0.15603000       0.09829000
    81  H          0.58170000       0.30490000       0.63810000
    82  H          0.41830000       0.80490000       0.86190000
    83  H          0.41830000       0.69510000       0.36190000
    84  H          0.58170000       0.19510000       0.13810000
    85  C          0.46121300       0.29337000       0.51269000
    86  C          0.53878700       0.79337000       0.98731000
    87  C          0.53878700       0.70663000       0.48731000
    88  C          0.46121300       0.20663000       0.01269000
    89  C          0.64381400       0.01798000       0.36569000
    90  C          0.35618600       0.51798000       0.13431000
    91  C          0.35618600       0.98202000       0.63431000
    92  C          0.64381400       0.48202000       0.86569000
    93  H          0.62370000      -0.01560000       0.30680000
    94  H          0.37630000       0.48440000       0.19320000
    95  H          0.37630000       0.01560000       0.69320000
    96  H          0.62370000       0.51560000       0.80680000
    97  C          0.21601300       0.46667000       0.48679000
    98  C          0.78398700       0.96667000       0.01321000
    99  C          0.78398700       0.53333000       0.51321000
   100  C          0.21601300       0.03333000       0.98679000
   101  H          0.12240000       0.50750000       0.44850000
   102  H          0.87760000       0.00750000       0.05150000
   103  H          0.87760000       0.49250000       0.55150000
   104  H          0.12240000      -0.00750000       0.94850000
   105  C          0.53811300       0.13007000       0.39118000
   106  C          0.46188700       0.63007000       0.10882000
   107  C          0.46188700       0.86993000       0.60882000
   108  C          0.53811300       0.36993000       0.89118000
   109  H          0.44740000       0.17080000       0.35060000
   110  H          0.55260000       0.67080000       0.14940000
   111  H          0.55260000       0.82920000       0.64940000
   112  H          0.44740000       0.32920000       0.85060000
   113  C          0.70431200       0.11117000       0.53498000
   114  C          0.29568800       0.61117000       0.96502000
   115  C          0.29568800       0.88883000       0.46502000
   116  C          0.70431200       0.38883000       0.03498000
   117  H          0.72790000       0.14040000       0.59430000
   118  H          0.27210000       0.64040000       0.90570000
   119  H          0.27210000       0.85960000       0.40570000
   120  H          0.72790000       0.35960000       0.09430000
   121  C          0.57101400       0.18077000       0.47981000
   122  C          0.42898600       0.68077000       0.02019000
   123  C          0.42898600       0.81923000       0.52019000
   124  C          0.57101400       0.31923000       0.97981000
