data_SUCACB07
_symmetry_space_group_name_H-M    'P1'
_symmetry_Int_Tables_number       1
loop_
_symmetry_equiv_pos_site_id
_symmetry_equiv_pos_as_xyz
1 x,y,z
_cell_length_a                   6.8673
_cell_length_b                   7.1982
_cell_length_c                   5.7272
_cell_angle_alpha                109.102
_cell_angle_beta                 97.183
_cell_angle_gamma                101.843
loop_
_atom_site_label
_atom_site_type_symbol
_atom_site_fract_x
_atom_site_fract_y
_atom_site_fract_z
     1  O          0.40105000       0.19914000       0.47056000
     2  O          0.59895000       0.80086000       0.52944000
     3  O          0.56005000       0.15984000       0.80726000
     4  O          0.43995000       0.84016000       0.19274000
     5  C          0.47566000       0.26016000       0.71068000
     6  C          0.52434000       0.73984000       0.28932000
     7  C          0.44857000       0.46246000       0.86698000
     8  C          0.55143000       0.53754000       0.13302000
     9  H          0.43050000       0.04950000       0.37720000
    10  H          0.56950000       0.95050000       0.62280000
    11  H          0.29120000       0.44410000       0.85260000
    12  H          0.70880000       0.55590000       0.14740000
    13  H          0.37900000       0.51150000       0.73820000
    14  H          0.62100000       0.48850000       0.26180000
    15  O          0.89975000       0.24554000       0.47766000
    16  O          0.10025000       0.75446000       0.52234000
    17  O          0.05255000       0.37244000       0.22356000
    18  O          0.94745000       0.62756000       0.77644000
    19  C         -0.02854000       0.22626000       0.27497000
    20  C          0.02854000       0.77374000       0.72503000
    21  C          0.94497000       0.01076000       0.10868000
    22  C          0.05503000      -0.01076000       0.89132000
    23  H          0.91320000       0.38630000       0.57240000
    24  H          0.08680000       0.61370000       0.42760000
    25  H          0.78480000       0.95830000       0.04380000
    26  H          0.21520000       0.04170000       0.95620000
    27  H          0.00140000       0.94610000       0.22890000
    28  H         -0.00140000       0.05390000       0.77110000
