data_SUCACB19
_symmetry_space_group_name_H-M    'P1'
_symmetry_Int_Tables_number       1
loop_
_symmetry_equiv_pos_site_id
_symmetry_equiv_pos_as_xyz
1 x,y,z
_cell_length_a                   5.70155
_cell_length_b                   8.41548
_cell_length_c                   10.35388
_cell_angle_alpha                90.0
_cell_angle_beta                 90.3743
_cell_angle_gamma                90.0
loop_
_atom_site_label
_atom_site_type_symbol
_atom_site_fract_x
_atom_site_fract_y
_atom_site_fract_z
     1  O          0.89787190       0.39490150       0.40051110
     2  O          0.10212810       0.39490150       0.09948890
     3  O          0.39787190       0.89490150       0.40051110
     4  O          0.60212810       0.89490150       0.09948890
     5  O          0.10212810       0.60509850       0.59948890
     6  O          0.89787190       0.60509850       0.90051110
     7  O          0.60212810       0.10509850       0.59948890
     8  O          0.39787190       0.10509850       0.90051110
     9  H          0.92230000       0.32320000       0.46320000
    10  H          0.07770000       0.32320000       0.03680000
    11  H          0.42230000       0.82320000       0.46320000
    12  H          0.57770000       0.82320000       0.03680000
    13  H          0.07770000       0.67680000       0.53680000
    14  H          0.92230000       0.67680000       0.96320000
    15  H          0.57770000       0.17680000       0.53680000
    16  H          0.42230000       0.17680000       0.96320000
    17  O          0.52212190       0.32310140       0.41820110
    18  O          0.47787810       0.32310140       0.08179890
    19  O          0.02212190       0.82310140       0.41820110
    20  O         -0.02212190       0.82310140       0.08179890
    21  O          0.47787810       0.67689860       0.58179890
    22  O          0.52212190       0.67689860       0.91820110
    23  O         -0.02212190       0.17689860       0.58179890
    24  O          0.02212190       0.17689860       0.91820110
    25  C          0.67383000       0.40725180       0.37068140
    26  C          0.32617000       0.40725180       0.12931860
    27  C          0.17383000       0.90725180       0.37068140
    28  C          0.82617000       0.90725180       0.12931860
    29  C          0.32617000       0.59274820       0.62931860
    30  C          0.67383000       0.59274820       0.87068140
    31  C          0.82617000       0.09274820       0.62931860
    32  C          0.17383000       0.09274820       0.87068140
    33  C          0.62563000       0.53659190       0.27490150
    34  C          0.37437000       0.53659190       0.22509850
    35  C          0.12563000       0.03659190       0.27490150
    36  C          0.87437000       0.03659190       0.22509850
    37  C          0.37437000       0.46340810       0.72509850
    38  C          0.62563000       0.46340810       0.77490150
    39  C          0.87437000       0.96340810       0.72509850
    40  C          0.12563000       0.96340810       0.77490150
    41  H          0.73320000       0.52420000       0.20090000
    42  H          0.26680000       0.52420000       0.29910000
    43  H          0.23320000       0.02420000       0.20090000
    44  H          0.76680000       0.02420000       0.29910000
    45  H          0.26680000       0.47580000       0.79910000
    46  H          0.73320000       0.47580000       0.70090000
    47  H          0.76680000       0.97580000       0.79910000
    48  H          0.23320000       0.97580000       0.70090000
    49  H          0.65920000       0.64050000       0.31580000
    50  H          0.34080000       0.64050000       0.18420000
    51  H          0.15920000       0.14050000       0.31580000
    52  H          0.84080000       0.14050000       0.18420000
    53  H          0.34080000       0.35950000       0.68420000
    54  H          0.65920000       0.35950000       0.81580000
    55  H          0.84080000       0.85950000       0.68420000
    56  H          0.15920000       0.85950000       0.81580000
