data_SUCACB02
_symmetry_space_group_name_H-M    'P1'
_symmetry_Int_Tables_number       1
loop_
_symmetry_equiv_pos_site_id
_symmetry_equiv_pos_as_xyz
1 x,y,z
_cell_length_a                   5.5192
_cell_length_b                   8.8626
_cell_length_c                   5.1012
_cell_angle_alpha                90.0
_cell_angle_beta                 91.594
_cell_angle_gamma                90.0
loop_
_atom_site_label
_atom_site_type_symbol
_atom_site_fract_x
_atom_site_fract_y
_atom_site_fract_z
     1  C          0.08080000       0.93360000       0.97230000
     2  C          0.91920000       0.43360000       0.52770000
     3  C          0.91920000       0.06640000       0.02770000
     4  C          0.08080000       0.56640000       0.47230000
     5  C          0.25990000       0.96550000       0.76360000
     6  C          0.74010000       0.46550000       0.73640000
     7  C          0.74010000       0.03450000       0.23640000
     8  C          0.25990000       0.53450000       0.26360000
     9  O          0.25280000       0.07750000       0.62400000
    10  O          0.74720000       0.57750000       0.87600000
    11  O          0.74720000       0.92250000       0.37600000
    12  O          0.25280000       0.42250000       0.12400000
    13  O          0.42400000       0.86050000       0.74300000
    14  O          0.57600000       0.36050000       0.75700000
    15  O          0.57600000       0.13950000       0.25700000
    16  O          0.42400000       0.63950000       0.24300000
    17  H         -0.02530000       0.83650000       0.90760000
    18  H          0.02530000       0.33650000       0.59240000
    19  H          0.02530000       0.16350000       0.09240000
    20  H         -0.02530000       0.66350000       0.40760000
    21  H          0.18160000       0.89650000       0.14660000
    22  H          0.81840000       0.39650000       0.35340000
    23  H          0.81840000       0.10350000       0.85340000
    24  H          0.18160000       0.60350000       0.64660000
    25  H          0.53550000       0.88110000       0.59750000
    26  H          0.46450000       0.38110000       0.90250000
    27  H          0.46450000       0.11890000       0.40250000
    28  H          0.53550000       0.61890000       0.09750000
