data_SUTHAZ11
_symmetry_space_group_name_H-M    'P1'
_symmetry_Int_Tables_number       1
loop_
_symmetry_equiv_pos_site_id
_symmetry_equiv_pos_as_xyz
1 x,y,z
_cell_length_a                   15.5042
_cell_length_b                   8.4942
_cell_length_c                   17.4273
_cell_angle_alpha                90.0
_cell_angle_beta                 112.763
_cell_angle_gamma                90.0
loop_
_atom_site_label
_atom_site_type_symbol
_atom_site_fract_x
_atom_site_fract_y
_atom_site_fract_z
     1  S          0.18220600       0.11931100       0.60645500
     2  S          0.31779400       0.61931100       0.39354500
     3  S          0.81779400       0.88068900       0.39354500
     4  S          0.68220600       0.38068900       0.60645500
     5  S          0.36124600       0.35106110       0.63862600
     6  S          0.13875400       0.85106110       0.36137400
     7  S          0.63875400       0.64893890       0.36137400
     8  S          0.86124600       0.14893890       0.63862600
     9  O          0.09743160       0.03713000       0.55745150
    10  O          0.40256840       0.53713000       0.44254850
    11  O          0.90256840       0.96287000       0.44254850
    12  O          0.59743160       0.46287000       0.55745150
    13  C          0.25882000       0.08494000       0.85552000
    14  C          0.24118000       0.58494000       0.14448000
    15  C          0.74118000       0.91506000       0.14448000
    16  C          0.75882000       0.41506000       0.85552000
    17  H          0.30880000       0.04120000       0.90160000
    18  H          0.19120000       0.54120000       0.09840000
    19  H          0.69120000       0.95880000       0.09840000
    20  H          0.80880000       0.45880000       0.90160000
    21  O          0.26930160       0.05023000       0.61169150
    22  O          0.23069840       0.55023000       0.38830850
    23  O          0.73069840       0.94977000       0.38830850
    24  O          0.76930160       0.44977000       0.61169150
    25  C          0.18562000       0.16124000       0.86822000
    26  C          0.31438000       0.66124000       0.13178000
    27  C          0.81438000       0.83876000       0.13178000
    28  C          0.68562000       0.33876000       0.86822000
    29  N          0.22987190       0.54854000       0.58013180
    30  N          0.27012810       0.04854000       0.41986820
    31  N          0.77012810       0.45146000       0.41986820
    32  N          0.72987190       0.95146000       0.58013180
    33  N          0.18202000       0.17454000       0.94738180
    34  N          0.31798000       0.67454000       0.05261820
    35  N          0.81798000       0.82546000       0.05261820
    36  N          0.68202000       0.32546000       0.94738180
    37  N          0.16851180       0.29753000       0.57181170
    38  N          0.33148820       0.79753000       0.42818830
    39  N          0.83148820       0.70247000       0.42818830
    40  N          0.66851180       0.20247000       0.57181170
    41  C          0.11152000       0.21074000       0.72022000
    42  C          0.38848000       0.71074000       0.27978000
    43  C          0.88848000       0.78926000       0.27978000
    44  C          0.61152000       0.28926000       0.72022000
    45  H          0.06150000       0.25400000       0.67390000
    46  H          0.43850000       0.75400000       0.32610000
    47  H          0.93850000       0.74600000       0.32610000
    48  H          0.56150000       0.24600000       0.67390000
    49  C          0.25912000       0.07254000       0.77662000
    50  C          0.24088000       0.57254000       0.22338000
    51  C          0.74088000       0.92746000       0.22338000
    52  C          0.75912000       0.42746000       0.77662000
    53  H          0.30920000       0.02070000       0.76850000
    54  H          0.19080000       0.52070000       0.23150000
    55  H          0.69080000       0.97930000       0.23150000
    56  H          0.80920000       0.47930000       0.76850000
    57  C          0.31062000       0.63674000       0.60542000
    58  C          0.18938000       0.13674000       0.39458000
    59  C          0.68938000       0.36326000       0.39458000
    60  C          0.81062000       0.86326000       0.60542000
    61  H          0.31110000       0.74790000       0.59940000
    62  H          0.18890000       0.24790000       0.40060000
    63  H          0.68890000       0.25210000       0.40060000
    64  H          0.81110000       0.75210000       0.59940000
    65  C          0.11152000       0.22104000       0.79942000
    66  C          0.38848000       0.72104000       0.20058000
    67  C          0.88848000       0.77896000       0.20058000
    68  C          0.61152000       0.27896000       0.79942000
    69  H          0.06020000       0.26960000       0.80710000
    70  H          0.43980000       0.76960000       0.19290000
    71  H          0.93980000       0.73040000       0.19290000
    72  H          0.56020000       0.23040000       0.80710000
    73  C          0.18632000       0.13574000       0.70932000
    74  C          0.31368000       0.63574000       0.29068000
    75  C          0.81368000       0.86426000       0.29068000
    76  C          0.68632000       0.36426000       0.70932000
    77  C          0.38793000       0.55025000       0.63922000
    78  C          0.11207000       0.05025000       0.36078000
    79  C          0.61207000       0.44975000       0.36078000
    80  C          0.88793000       0.94975000       0.63922000
    81  H          0.44960000       0.59180000       0.66070000
    82  H          0.05040000       0.09180000       0.33930000
    83  H          0.55040000       0.40820000       0.33930000
    84  H          0.94960000       0.90820000       0.66070000
    85  C          0.24172000       0.39254000       0.59312000
    86  C          0.25828000       0.89254000       0.40688000
    87  C          0.75828000       0.60746000       0.40688000
    88  C          0.74172000       0.10746000       0.59312000
    89  H          0.17291700       0.58850000       0.55720000
    90  H          0.32708300       0.08850000       0.44280000
    91  H          0.82708300       0.41150000       0.44280000
    92  H          0.67291700       0.91150000       0.55720000
    93  H          0.17030000       0.27130000       0.95630000
    94  H          0.32970000       0.77130000       0.04370000
    95  H          0.82970000       0.72870000       0.04370000
    96  H          0.67030000       0.22870000       0.95630000
    97  H          0.23220000       0.13950000       0.98720000
    98  H          0.26780000       0.63950000       0.01280000
    99  H          0.76780000       0.86050000       0.01280000
   100  H          0.73220000       0.36050000       0.98720000
   101  S          0.05810600       0.59940900       0.88437500
   102  S          0.44189400       0.09940900       0.11562500
   103  S          0.94189400       0.40059100       0.11562500
   104  S          0.55810600       0.90059100       0.88437500
   105  S          0.87613400       0.82433880       0.85600600
   106  S          0.62386600       0.32433880       0.14399400
   107  S          0.12386600       0.17566120       0.14399400
   108  S          0.37613400       0.67566120       0.85600600
   109  O          0.97275840       0.52127000       0.87799140
   110  O          0.52724160       0.02127000       0.12200860
   111  O          0.02724160       0.47873000       0.12200860
   112  O          0.47275840       0.97873000       0.87799140
   113  C          0.98098000       0.57996000       0.63492000
   114  C          0.51902000       0.07996000       0.36508000
   115  C          0.01902000       0.42004000       0.36508000
   116  C          0.48098000       0.92004000       0.63492000
   117  H          0.93260000       0.53320000       0.58860000
   118  H          0.56740000       0.03320000       0.41140000
   119  H          0.06740000       0.46680000       0.41140000
   120  H          0.43260000       0.96680000       0.58860000
   121  C          0.04912000       0.66926000       0.62222000
   122  C          0.45088000       0.16926000       0.37778000
   123  C          0.95088000       0.33074000       0.37778000
   124  C          0.54912000       0.83074000       0.62222000
   125  O          0.14488160       0.51807000       0.93236140
   126  O          0.35511840       0.01807000       0.06763860
   127  O          0.85511840       0.48193000       0.06763860
   128  O          0.64488160       0.98193000       0.93236140
   129  N          0.00722000       0.02354000       0.91193180
   130  N          0.49278000       0.52354000       0.08806820
   131  N         -0.00722000       0.97646000       0.08806820
   132  N          0.50722000       0.47646000       0.91193180
   133  C          0.12402000       0.71256000       0.77102000
   134  C          0.37598000       0.21256000       0.22898000
   135  C          0.87598000       0.28744000       0.22898000
   136  C          0.62402000       0.78744000       0.77102000
   137  H          0.17240000       0.75830000       0.81760000
   138  H          0.32760000       0.25830000       0.18240000
   139  H          0.82760000       0.24170000       0.18240000
   140  H          0.67240000       0.74170000       0.81760000
   141  N          0.06983190       0.77367000       0.92172180
   142  N          0.43016810       0.27367000       0.07827820
   143  N          0.93016810       0.22633000       0.07827820
   144  N          0.56983190       0.72633000       0.92172180
   145  N          0.04892000       0.69526000       0.54200180
   146  N          0.45108000       0.19526000       0.45799820
   147  N          0.95108000       0.30474000       0.45799820
   148  N          0.54892000       0.80474000       0.54200180
   149  C         -0.00392000       0.86776000       0.89952000
   150  C          0.50392000       0.36776000       0.10048000
   151  C          0.00392000       0.13224000       0.10048000
   152  C          0.49608000       0.63224000       0.89952000
   153  C          0.05402000       0.62386000       0.78202000
   154  C          0.44598000       0.12386000       0.21798000
   155  C          0.94598000       0.37614000       0.21798000
   156  C          0.55402000       0.87614000       0.78202000
   157  C          0.12272000       0.73386000       0.69192000
   158  C          0.37728000       0.23386000       0.30808000
   159  C          0.87728000       0.26614000       0.30808000
   160  C          0.62272000       0.76614000       0.69192000
   161  H          0.17120000       0.79200000       0.68440000
   162  H          0.32880000       0.29200000       0.31560000
   163  H          0.82880000       0.20800000       0.31560000
   164  H          0.67120000       0.70800000       0.68440000
   165  C          0.92578000       0.11135000       0.88832000
   166  C          0.57422000       0.61135000       0.11168000
   167  C          0.07422000       0.88865000       0.11168000
   168  C          0.42578000       0.38865000       0.88832000
   169  H          0.92470000       0.22240000       0.89390000
   170  H          0.57530000       0.72240000       0.10610000
   171  H          0.07530000       0.77760000       0.10610000
   172  H          0.42470000       0.27760000       0.89390000
   173  C          0.98208000       0.55756000       0.71442000
   174  C          0.51792000       0.05756000       0.28558000
   175  C          0.01792000       0.44244000       0.28558000
   176  C          0.48208000       0.94244000       0.71442000
   177  H          0.93440000       0.49790000       0.72240000
   178  H          0.56560000      -0.00210000       0.27760000
   179  H          0.06560000       0.50210000       0.27760000
   180  H          0.43440000       0.00210000       0.72240000
   181  C          0.84877000       0.02195000       0.85682000
   182  C          0.65123000       0.52195000       0.14318000
   183  C          0.15123000       0.97805000       0.14318000
   184  C          0.34877000       0.47805000       0.85682000
   185  H          0.78680000       0.06200000       0.83720000
   186  H          0.71320000       0.56200000       0.16280000
   187  H          0.21320000       0.93800000       0.16280000
   188  H          0.28680000       0.43800000       0.83720000
   189  H          0.06461700       0.06050000       0.93520000
   190  H          0.43538300       0.56050000       0.06480000
   191  H          0.93538300       0.93950000       0.06480000
   192  H          0.56461700       0.43950000       0.93520000
   193  H          0.06730000       0.79170000       0.53630000
   194  H          0.43270000       0.29170000       0.46370000
   195  H          0.93270000       0.20830000       0.46370000
   196  H          0.56730000       0.70830000       0.53630000
   197  H         -0.00591800       0.67750000       0.50220000
   198  H          0.50591800       0.17750000       0.49780000
   199  H          0.00591800       0.32250000       0.49780000
   200  H          0.49408200       0.82250000       0.50220000
