data_SUTHAZ05
_symmetry_space_group_name_H-M    'P1'
_symmetry_Int_Tables_number       1
loop_
_symmetry_equiv_pos_site_id
_symmetry_equiv_pos_as_xyz
1 x,y,z
_cell_length_a                   10.3992
_cell_length_b                   15.1323
_cell_length_c                   14.2803
_cell_angle_alpha                90.0
_cell_angle_beta                 91.213
_cell_angle_gamma                90.0
loop_
_atom_site_label
_atom_site_type_symbol
_atom_site_fract_x
_atom_site_fract_y
_atom_site_fract_z
     1  S          0.17581700       0.40001600       0.85555400
     2  S          0.32418300       0.90001600       0.64444600
     3  S          0.82418300       0.59998400       0.14444600
     4  S          0.67581700       0.09998400       0.35555400
     5  S          0.33345800       0.37399700       0.05805600
     6  S          0.16654200       0.87399700       0.44194400
     7  S          0.66654200       0.62600300       0.94194400
     8  S          0.83345800       0.12600300       0.55805600
     9  O          0.13722000       0.35111160       0.77255840
    10  O          0.36278000       0.85111160       0.72744160
    11  O          0.86278000       0.64888840       0.22744160
    12  O          0.63722000       0.14888840       0.27255840
    13  O          0.11201190       0.37652150       0.94088840
    14  O          0.38798810       0.87652150       0.55911160
    15  O          0.88798810       0.62347850       0.05911160
    16  O          0.61201190       0.12347850       0.44088840
    17  N          0.09243000       0.78232000       0.80387000
    18  N          0.40757000       0.28232000       0.69613000
    19  N          0.90757000       0.21768000       0.19613000
    20  N          0.59243000       0.71768000       0.30387000
    21  H          0.12930000       0.81620000       0.75980000
    22  H          0.37070000       0.31620000       0.74020000
    23  H          0.87070000       0.18380000       0.24020000
    24  H          0.62930000       0.68380000       0.25980000
    25  H          0.03640000       0.81530000       0.84070000
    26  H          0.46360000       0.31530000       0.65930000
    27  H          0.96360000       0.18470000       0.15930000
    28  H          0.53640000       0.68470000       0.34070000
    29  N          0.32822000       0.38965190       0.86323820
    30  N          0.17178000       0.88965190       0.63676180
    31  N          0.67178000       0.61034810       0.13676180
    32  N          0.82822000       0.11034810       0.36323820
    33  N          0.51982000       0.38573180       0.94821810
    34  N          0.98018000       0.88573180       0.55178190
    35  N          0.48018000       0.61426820       0.05178190
    36  N          0.01982000       0.11426820       0.44821810
    37  H          0.56460000       0.39120000       0.89860000
    38  H          0.93540000       0.89120000       0.60140000
    39  H          0.43540000       0.60880000       0.10140000
    40  H          0.06460000       0.10880000       0.39860000
    41  C          0.10983000       0.69442000       0.81198000
    42  C          0.39017000       0.19442000       0.68802000
    43  C          0.89017000       0.30558000       0.18802000
    44  C          0.60983000       0.80558000       0.31198000
    45  C          0.20783000       0.64992000       0.76388000
    46  C          0.29217000       0.14992000       0.73612000
    47  C          0.79217000       0.35008000       0.23612000
    48  C          0.70783000       0.85008000       0.26388000
    49  H          0.26010000       0.68140000       0.72380000
    50  H          0.23990000       0.18140000       0.77620000
    51  H          0.73990000       0.31860000       0.27620000
    52  H          0.76010000       0.81860000       0.22380000
    53  C          0.22703000       0.56082000       0.77538000
    54  C          0.27297000       0.06082000       0.72462000
    55  C          0.77297000       0.43918000       0.22462000
    56  C          0.72703000       0.93918000       0.27538000
    57  H          0.29180000       0.53250000       0.74290000
    58  H          0.20820000       0.03250000       0.75710000
    59  H          0.70820000       0.46750000       0.25710000
    60  H          0.79180000       0.96750000       0.24290000
    61  C          0.14963000       0.51222000       0.83568000
    62  C          0.35037000       0.01222000       0.66432000
    63  C          0.85037000       0.48778000       0.16432000
    64  C          0.64963000       0.98778000       0.33568000
    65  C          0.05053000       0.55552000       0.88198000
    66  C          0.44947000       0.05552000       0.61802000
    67  C          0.94947000       0.44448000       0.11802000
    68  C          0.55053000       0.94448000       0.38198000
    69  H         -0.00270000       0.52380000       0.92130000
    70  H          0.50270000       0.02380000       0.57870000
    71  H          0.00270000       0.47620000       0.07870000
    72  H          0.49730000       0.97620000       0.42130000
    73  C          0.03123000       0.64502000       0.86988000
    74  C          0.46877000       0.14502000       0.63012000
    75  C          0.96877000       0.35498000       0.13012000
    76  C          0.53123000       0.85498000       0.36988000
    77  H          0.96470000       0.67270000       0.90090000
    78  H          0.53530000       0.17270000       0.59910000
    79  H          0.03530000       0.32730000       0.09910000
    80  H          0.46470000       0.82730000       0.40090000
    81  C          0.39063000       0.38442000       0.94508000
    82  C          0.10937000       0.88442000       0.55492000
    83  C          0.60937000       0.61558000       0.05492000
    84  C          0.89063000       0.11558000       0.44508000
    85  C          0.57583000       0.37773000       0.03622000
    86  C          0.92417000       0.87773000       0.46378000
    87  C          0.42417000       0.62227000       0.96378000
    88  C          0.07583000       0.12227000       0.53622000
    89  H          0.66420000       0.37660000       0.04750000
    90  H          0.83580000       0.87660000       0.45250000
    91  H          0.33580000       0.62340000       0.95250000
    92  H          0.16420000       0.12340000       0.54750000
    93  C          0.48933000       0.37163000       0.10323000
    94  C          0.01067000       0.87163000       0.39677000
    95  C          0.51067000       0.62837000       0.89677000
    96  C         -0.01067000       0.12837000       0.60323000
    97  H          0.50990000       0.36670000       0.16670000
    98  H         -0.00990000       0.86670000       0.33330000
    99  H          0.49010000       0.63330000       0.83330000
   100  H          0.00990000       0.13330000       0.66670000
   101  S          0.17103700       0.05317600       0.17760600
   102  S          0.32896300       0.55317600       0.32239400
   103  S          0.82896300       0.94682400       0.82239400
   104  S          0.67103700       0.44682400       0.67760600
   105  S          0.32040800       0.10341800       0.98615400
   106  S          0.17959200       0.60341800       0.51384600
   107  S          0.67959200       0.89658200       0.01384600
   108  S          0.82040800       0.39658200       0.48615400
   109  O          0.09542000       0.09562150       0.10411160
   110  O          0.40458000       0.59562150       0.39588840
   111  O          0.90458000       0.90437850       0.89588840
   112  O          0.59542000       0.40437850       0.60411160
   113  O          0.12642000       0.06537170       0.27229160
   114  O          0.37358000       0.56537170       0.22770840
   115  O          0.87358000       0.93462830       0.72770840
   116  O          0.62642000       0.43462830       0.77229160
   117  N          0.16883000       0.66768000       0.10772000
   118  N          0.33117000       0.16768000       0.39228000
   119  N          0.83117000       0.33232000       0.89228000
   120  N          0.66883000       0.83232000       0.60772000
   121  H          0.10020000       0.64380000       0.07720000
   122  H          0.39980000       0.14380000       0.42280000
   123  H          0.89980000       0.35620000       0.92280000
   124  H          0.60020000       0.85620000       0.57720000
   125  H          0.19230000       0.63380000       0.15681800
   126  H          0.30770000       0.13380000       0.34318200
   127  H          0.80770000       0.36620000       0.84318200
   128  H          0.69230000       0.86620000       0.65681800
   129  N          0.31782000       0.08555180       0.18073190
   130  N          0.18218000       0.58555180       0.31926810
   131  N          0.68218000       0.91444820       0.81926810
   132  N          0.81782000       0.41444820       0.68073190
   133  N          0.50333000       0.12302000       0.10312000
   134  N         -0.00333000       0.62302000       0.39688000
   135  N          0.49667000       0.87698000       0.89688000
   136  N          0.00333000       0.37698000       0.60312000
   137  H          0.54740000       0.12670000       0.15460000
   138  H          0.95260000       0.62670000       0.34540000
   139  H          0.45260000       0.87330000       0.84540000
   140  H          0.04740000       0.37330000       0.65460000
   141  C          0.16703000       0.75678000       0.12522000
   142  C          0.33297000       0.25678000       0.37478000
   143  C          0.83297000       0.24322000       0.87478000
   144  C          0.66703000       0.74322000       0.62522000
   145  C          0.08453000       0.81308000       0.07502000
   146  C          0.41547000       0.31308000       0.42498000
   147  C          0.91547000       0.18692000       0.92498000
   148  C          0.58453000       0.68692000       0.57502000
   149  H          0.02670000       0.78950000       0.03120000
   150  H          0.47330000       0.28950000       0.46880000
   151  H          0.97330000       0.21050000       0.96880000
   152  H          0.52670000       0.71050000       0.53120000
   153  C          0.08733000       0.90288000       0.08942000
   154  C          0.41267000       0.40288000       0.41058000
   155  C          0.91267000       0.09712000       0.91058000
   156  C          0.58733000       0.59712000       0.58942000
   157  H          0.03140000       0.93920000       0.05520000
   158  H          0.46860000       0.43920000       0.44480000
   159  H          0.96860000       0.06080000       0.94480000
   160  H          0.53140000       0.56080000       0.55520000
   161  C          0.17243000       0.93988000       0.15422000
   162  C          0.32757000       0.43988000       0.34578000
   163  C          0.82757000       0.06012000       0.84578000
   164  C          0.67243000       0.56012000       0.65422000
   165  C          0.25613000       0.88508000       0.20542000
   166  C          0.24387000       0.38508000       0.29458000
   167  C          0.74387000       0.11492000       0.79458000
   168  C          0.75613000       0.61492000       0.70542000
   169  H          0.31340000       0.90940000       0.24920000
   170  H          0.18660000       0.40940000       0.25080000
   171  H          0.68660000       0.09060000       0.75080000
   172  H          0.81340000       0.59060000       0.74920000
   173  C          0.25363000       0.79498000       0.19102000
   174  C          0.24637000       0.29498000       0.30898000
   175  C          0.74637000       0.20502000       0.80898000
   176  C          0.75363000       0.70502000       0.69102000
   177  H          0.30980000       0.75890000       0.22510000
   178  H          0.19020000       0.25890000       0.27490000
   179  H          0.69020000       0.24110000       0.77490000
   180  H          0.80980000       0.74110000       0.72510000
   181  C          0.37763000       0.10222000       0.10202000
   182  C          0.12237000       0.60222000       0.39798000
   183  C          0.62237000       0.89778000       0.89798000
   184  C          0.87763000       0.39778000       0.60202000
   185  C          0.55774000       0.13823000       0.01763000
   186  C          0.94226000       0.63823000       0.48237000
   187  C          0.44226000       0.86177000       0.98237000
   188  C          0.05774000       0.36177000       0.51763000
   189  H          0.64370000       0.15280000       0.00990000
   190  H          0.85630000       0.65280000       0.49010000
   191  H          0.35630000       0.84720000       0.99010000
   192  H          0.14370000       0.34720000       0.50990000
   193  C          0.47284000       0.12973000       0.94737000
   194  C          0.02716000       0.62973000       0.55263000
   195  C          0.52716000       0.87027000       0.05263000
   196  C          0.97284000       0.37027000       0.44737000
   197  H          0.49260000       0.13700000       0.88470000
   198  H          0.00740000       0.63700000       0.61530000
   199  H          0.50740000       0.86300000       0.11530000
   200  H         -0.00740000       0.36300000       0.38470000
