data_SUTHAZ07
_symmetry_space_group_name_H-M    'P1'
_symmetry_Int_Tables_number       1
loop_
_symmetry_equiv_pos_site_id
_symmetry_equiv_pos_as_xyz
1 x,y,z
_cell_length_a                   10.500614
_cell_length_b                   12.9602
_cell_length_c                   17.1763
_cell_angle_alpha                90.0
_cell_angle_beta                 107.65314
_cell_angle_gamma                90.0
loop_
_atom_site_label
_atom_site_type_symbol
_atom_site_fract_x
_atom_site_fract_y
_atom_site_fract_z
     1  S          0.31679700       0.07358600       0.61882400
     2  S          0.68320300       0.57358600       0.88117600
     3  S          0.68320300       0.92641400       0.38117600
     4  S          0.31679700       0.42641400       0.11882400
     5  S          0.13420700       0.08311700       0.42671500
     6  S          0.86579300       0.58311700       0.07328500
     7  S          0.86579300       0.91688300       0.57328500
     8  S          0.13420700       0.41688300       0.92671500
     9  O          0.17885180       0.04462150       0.60295110
    10  O          0.82114820       0.54462150       0.89704890
    11  O          0.82114820       0.95537850       0.39704890
    12  O          0.17885180       0.45537850       0.10295110
    13  C          0.29773000       0.04032000       0.46852170
    14  C          0.70227000       0.54032000       0.03147830
    15  C          0.70227000       0.95968000       0.53147830
    16  C          0.29773000       0.45968000       0.96852170
    17  O          0.41315190       0.03389150       0.69197110
    18  O          0.58684810       0.53389150       0.80802890
    19  O          0.58684810       0.96610850       0.30802890
    20  O          0.41315190       0.46610850       0.19197110
    21  N          0.34632000       0.01100180       0.40834140
    22  N          0.65368000       0.51100180       0.09165860
    23  N          0.65368000       0.98899820       0.59165860
    24  N          0.34632000       0.48899820       0.90834140
    25  H          0.42611900      -0.01020000       0.41971600
    26  H          0.57388100       0.48980000       0.08028400
    27  H          0.57388100       0.01020000       0.58028400
    28  H          0.42611900       0.51020000       0.91971600
    29  C          0.45293000       0.36242000       0.66870160
    30  C          0.54707000       0.86242000       0.83129840
    31  C          0.54707000       0.63758000       0.33129840
    32  C          0.45293000       0.13758000       0.16870160
    33  H          0.53630000       0.39480000       0.69430000
    34  H          0.46370000       0.89480000       0.80570000
    35  H          0.46370000       0.60520000       0.30570000
    36  H          0.53630000       0.10520000       0.19430000
    37  C          0.32593000       0.20852000       0.62334160
    38  C          0.67407000       0.70852000       0.87665840
    39  C          0.67407000       0.79148000       0.37665840
    40  C          0.32593000       0.29148000       0.12334160
    41  C          0.21743000       0.37412000       0.60014160
    42  C          0.78257000       0.87412000       0.89985840
    43  C          0.78257000       0.62588000       0.39985840
    44  C          0.21743000       0.12588000       0.10014160
    45  H          0.13890000       0.41420000       0.57810000
    46  H          0.86110000       0.91420000       0.92190000
    47  H          0.86110000       0.58580000       0.42190000
    48  H          0.13890000       0.08580000       0.07810000
    49  C          0.44743000       0.25712000       0.66055160
    50  C          0.55257000       0.75712000       0.83944840
    51  C          0.55257000       0.74288000       0.33944840
    52  C          0.44743000       0.24288000       0.16055160
    53  H          0.52660000       0.21720000       0.68030000
    54  H          0.47340000       0.71720000       0.81970000
    55  H          0.47340000       0.78280000       0.31970000
    56  H          0.52660000       0.28280000       0.18030000
    57  C          0.14543000       0.06553000       0.32870180
    58  C          0.85457000       0.56553000       0.17129820
    59  C          0.85457000       0.93447000       0.67129820
    60  C          0.14543000       0.43447000       0.82870180
    61  H          0.07620000       0.08210000       0.28020000
    62  H          0.92380000       0.58210000       0.21980000
    63  H          0.92380000       0.91790000       0.71980000
    64  H          0.07620000       0.41790000       0.78020000
    65  C          0.21123000       0.26842000       0.59245160
    66  C          0.78877000       0.76842000       0.90754840
    67  C          0.78877000       0.73158000       0.40754840
    68  C          0.21123000       0.23158000       0.09245160
    69  H          0.12820000       0.23600000       0.56590000
    70  H          0.87180000       0.73600000       0.93410000
    71  H          0.87180000       0.76400000       0.43410000
    72  H          0.12820000       0.26400000       0.06590000
    73  N          0.37412000       0.03555170       0.54607130
    74  N          0.62588000       0.53555170       0.95392870
    75  N          0.62588000       0.96444830       0.45392870
    76  N          0.37412000       0.46444830       0.04607130
    77  C          0.33793000       0.42322000       0.64000150
    78  C          0.66207000       0.92322000       0.85999850
    79  C          0.66207000       0.57678000       0.35999850
    80  C          0.33793000       0.07678000       0.14000150
    81  N          0.34503000       0.52792000       0.65148160
    82  N          0.65497000       0.02792000       0.84851840
    83  N          0.65497000       0.47208000       0.34851840
    84  N          0.34503000       0.97208000       0.15148160
    85  H          0.41620000       0.55620000       0.68501500
    86  H          0.58380000       0.05620000       0.81498500
    87  H          0.58380000       0.44380000       0.31498500
    88  H          0.41620000       0.94380000       0.18501500
    89  H          0.27020000       0.56220000       0.63841600
    90  H          0.72980000       0.06220000       0.86158400
    91  H          0.72980000       0.43780000       0.36158400
    92  H          0.27020000       0.93780000       0.13841600
    93  C          0.26273000       0.02602000       0.33004170
    94  C          0.73727000       0.52602000       0.16995830
    95  C          0.73727000       0.97398000       0.66995830
    96  C          0.26273000       0.47398000       0.83004170
    97  H          0.28640000       0.00990000       0.28230000
    98  H          0.71360000       0.50990000       0.21770000
    99  H          0.71360000      -0.00990000       0.71770000
   100  H          0.28640000       0.49010000       0.78230000
   101  S          0.80815300       0.07165600       0.08941400
   102  S          0.19184700       0.57165600       0.41058600
   103  S          0.19184700       0.92834400       0.91058600
   104  S          0.80815300       0.42834400       0.58941400
   105  S          0.65328300       0.25603600       0.96470500
   106  S          0.34671700       0.75603600       0.53529500
   107  S          0.34671700       0.74396400       0.03529500
   108  S          0.65328300       0.24396400       0.46470500
   109  N          0.64888000       0.06975170       0.04542130
   110  N          0.35112000       0.56975170       0.45457870
   111  N          0.35112000       0.93024830       0.95457870
   112  N          0.64888000       0.43024830       0.54542130
   113  O          0.83828820       0.96772850       0.12007110
   114  O          0.16171180       0.46772850       0.37992890
   115  O          0.16171180       0.03227150       0.87992890
   116  O          0.83828820       0.53227150       0.62007110
   117  C          0.58967000       0.14192000      -0.00801160
   118  C          0.41033000       0.64192000       0.50801160
   119  C          0.41033000       0.85808000       0.00801160
   120  C          0.58967000       0.35808000       0.49198840
   121  O          0.88027820       0.11168160       0.03688110
   122  O          0.11972180       0.61168160       0.46311890
   123  O          0.11972180       0.88831840       0.96311890
   124  O          0.88027820       0.38831840       0.53688110
   125  C          0.84087000       0.15392000       0.17414160
   126  C          0.15913000       0.65392000       0.32585840
   127  C          0.15913000       0.84608000       0.82585840
   128  C          0.84087000       0.34608000       0.67414160
   129  N          0.46058000       0.13311190       0.94819860
   130  N          0.53942000       0.63311190       0.55180140
   131  N          0.53942000       0.86688810       0.05180140
   132  N          0.46058000       0.36688810       0.44819860
   133  H          0.41980000       0.07771600       0.95218400
   134  H          0.58020000       0.57771600       0.54781600
   135  H          0.58020000       0.92228400       0.04781600
   136  H          0.41980000       0.42228400       0.45218400
   137  C          0.90187000       0.27812000       0.31326160
   138  C          0.09813000       0.77812000       0.18673840
   139  C          0.09813000       0.72188000       0.68673840
   140  C          0.90187000       0.22188000       0.81326160
   141  N          0.92717000       0.34252000       0.38012160
   142  N          0.07283000       0.84252000       0.11987840
   143  N          0.07283000       0.65748000       0.61987840
   144  N          0.92717000       0.15748000       0.88012160
   145  H          0.91870000       0.31620000       0.42501300
   146  H          0.08130000       0.81620000       0.07498700
   147  H          0.08130000       0.68380000       0.57498700
   148  H          0.91870000       0.18380000       0.92501300
   149  H         -0.00820000       0.38920000       0.38661900
   150  H          0.00820000       0.88920000       0.11338100
   151  H          0.00820000       0.61080000       0.61338100
   152  H         -0.00820000       0.11080000       0.88661900
   153  C          0.80627000       0.12222000       0.24263160
   154  C          0.19373000       0.62222000       0.25736840
   155  C          0.19373000       0.87778000       0.75736840
   156  C          0.80627000       0.37778000       0.74263160
   157  H          0.76250000       0.05800000       0.24210000
   158  H          0.23750000       0.55800000       0.25790000
   159  H          0.23750000       0.94200000       0.75790000
   160  H          0.76250000       0.44200000       0.74210000
   161  C          0.83557000       0.18412000       0.31104170
   162  C          0.16443000       0.68412000       0.18895830
   163  C          0.16443000       0.81588000       0.68895830
   164  C          0.83557000       0.31588000       0.81104170
   165  H          0.81040000       0.16270000       0.35720000
   166  H          0.18960000       0.66270000       0.14280000
   167  H          0.18960000       0.83730000       0.64280000
   168  H          0.81040000       0.33730000       0.85720000
   169  C          0.90757000       0.24662000       0.17618170
   170  C          0.09243000       0.74662000       0.32381830
   171  C          0.09243000       0.75338000       0.82381830
   172  C          0.90757000       0.25338000       0.67618170
   173  H          0.93150000       0.26820000       0.12960000
   174  H          0.06850000       0.76820000       0.37040000
   175  H          0.06850000       0.73180000       0.87040000
   176  H          0.93150000       0.23180000       0.62960000
   177  C          0.93947000       0.30752000       0.24491170
   178  C          0.06053000       0.80752000       0.25508830
   179  C          0.06053000       0.69248000       0.75508830
   180  C          0.93947000       0.19248000       0.74491170
   181  H         -0.01270000       0.36990000       0.24600000
   182  H          0.01270000       0.86990000       0.25400000
   183  H          0.01270000       0.63010000       0.75400000
   184  H         -0.01270000       0.13010000       0.74600000
   185  C          0.41197000       0.20942000       0.89077830
   186  C          0.58803000       0.70942000       0.60922170
   187  C          0.58803000       0.79058000       0.10922170
   188  C          0.41197000       0.29058000       0.39077830
   189  H          0.32320000       0.21030000       0.85480000
   190  H          0.67680000       0.71030000       0.64520000
   191  H          0.67680000       0.78970000       0.14520000
   192  H          0.32320000       0.28970000       0.35480000
   193  C          0.50187000       0.28132000       0.89100820
   194  C          0.49813000       0.78132000       0.60899180
   195  C          0.49813000       0.71868000       0.10899180
   196  C          0.50187000       0.21868000       0.39100820
   197  H          0.48570000       0.33920000       0.85540000
   198  H          0.51430000       0.83920000       0.64460000
   199  H          0.51430000       0.66080000       0.14460000
   200  H          0.48570000       0.16080000       0.35540000
