data_SUTHAZ02
_symmetry_space_group_name_H-M    'P1'
_symmetry_Int_Tables_number       1
loop_
_symmetry_equiv_pos_site_id
_symmetry_equiv_pos_as_xyz
1 x,y,z
_cell_length_a                   17.5709
_cell_length_b                   8.5744
_cell_length_c                   15.5838
_cell_angle_alpha                90.0
_cell_angle_beta                 112.931
_cell_angle_gamma                90.0
loop_
_atom_site_label
_atom_site_type_symbol
_atom_site_fract_x
_atom_site_fract_y
_atom_site_fract_z
     1  C          0.12330000       0.32980000       0.54910000
     2  C          0.87670000       0.82980000       0.95090000
     3  C          0.87670000       0.67020000       0.45090000
     4  C          0.12330000       0.17020000       0.04910000
     5  C          0.13570000       0.41840000       0.48130000
     6  C          0.86430000       0.91840000       0.01870000
     7  C          0.86430000       0.58160000       0.51870000
     8  C          0.13570000       0.08160000       0.98130000
     9  C          0.21520000       0.43910000       0.48310000
    10  C          0.78480000       0.93910000       0.01690000
    11  C          0.78480000       0.56090000       0.51690000
    12  C          0.21520000       0.06090000       0.98310000
    13  C          0.28300000       0.37430000       0.55480000
    14  C          0.71700000       0.87430000       0.94520000
    15  C          0.71700000       0.62570000       0.44520000
    16  C          0.28300000       0.12570000       0.05480000
    17  C          0.27100000       0.28660000       0.62370000
    18  C          0.72900000       0.78660000       0.87630000
    19  C          0.72900000       0.71340000       0.37630000
    20  C          0.27100000       0.21340000       0.12370000
    21  C          0.19430000       0.26700000       0.62250000
    22  C          0.80570000       0.76700000       0.87750000
    23  C          0.80570000       0.73300000       0.37750000
    24  C          0.19430000       0.23300000       0.12250000
    25  C          0.39820000       0.13240000       0.49580000
    26  C          0.60180000       0.63240000       0.00420000
    27  C          0.60180000       0.86760000       0.50420000
    28  C          0.39820000       0.36760000      -0.00420000
    29  C          0.38750000       0.89160000       0.42680000
    30  C          0.61250000       0.39160000       0.07320000
    31  C          0.61250000       0.10840000       0.57320000
    32  C          0.38750000       0.60840000       0.92680000
    33  C          0.35620000       0.97830000       0.35040000
    34  C          0.64380000       0.47830000       0.14960000
    35  C          0.64380000       0.02170000       0.64960000
    36  C          0.35620000       0.52170000       0.85040000
    37  H          0.02200000       0.32700000       0.49400000
    38  H          0.97800000       0.82700000       0.00600000
    39  H          0.97800000       0.67300000       0.50600000
    40  H          0.02200000       0.17300000      -0.00600000
    41  H          0.05000000       0.19900000       0.57400000
    42  H          0.95000000       0.69900000       0.92600000
    43  H          0.95000000       0.80100000       0.42600000
    44  H          0.05000000       0.30100000       0.07400000
    45  H          0.09500000       0.46400000       0.43200000
    46  H          0.90500000       0.96400000       0.06800000
    47  H          0.90500000       0.53600000       0.56800000
    48  H          0.09500000       0.03600000       0.93200000
    49  H          0.22900000       0.47900000       0.43900000
    50  H          0.77100000       0.97900000       0.06100000
    51  H          0.77100000       0.52100000       0.56100000
    52  H          0.22900000       0.02100000       0.93900000
    53  H          0.31700000       0.24600000       0.66700000
    54  H          0.68300000       0.74600000       0.83300000
    55  H          0.68300000       0.75400000       0.33300000
    56  H          0.31700000       0.25400000       0.16700000
    57  H          0.18900000       0.19900000       0.67300000
    58  H          0.81100000       0.69900000       0.82700000
    59  H          0.81100000       0.80100000       0.32700000
    60  H          0.18900000       0.30100000       0.17300000
    61  H          0.43900000       0.94200000       0.56500000
    62  H          0.56100000       0.44200000       0.93500000
    63  H          0.56100000       0.05800000       0.43500000
    64  H          0.43900000       0.55800000       0.06500000
    65  H          0.38900000       0.77500000       0.42400000
    66  H          0.61100000       0.27500000       0.07600000
    67  H          0.61100000       0.22500000       0.57600000
    68  H          0.38900000       0.72500000       0.92400000
    69  H          0.31100000       0.94000000       0.27300000
    70  H          0.68900000       0.44000000       0.22700000
    71  H          0.68900000       0.06000000       0.72700000
    72  H          0.31100000       0.56000000       0.77300000
    73  N          0.04490000       0.30470000       0.54980000
    74  N          0.95510000       0.80470000       0.95020000
    75  N          0.95510000       0.69530000       0.45020000
    76  N          0.04490000       0.19530000       0.04980000
    77  N          0.42020000       0.22460000       0.56930000
    78  N          0.57980000       0.72460000       0.93070000
    79  N          0.57980000       0.77540000       0.43070000
    80  N          0.42020000       0.27540000       0.06930000
    81  N          0.41070000       0.97810000       0.50810000
    82  N          0.58930000       0.47810000      -0.00810000
    83  N          0.58930000       0.02190000       0.49190000
    84  N          0.41070000       0.52190000       0.00810000
    85  O          0.43140000       0.47810000       0.64450000
    86  O          0.56860000       0.97810000       0.85550000
    87  O          0.56860000       0.52190000       0.35550000
    88  O          0.43140000       0.02190000       0.14450000
    89  O          0.37610000       0.47550000       0.47330000
    90  O          0.62390000       0.97550000       0.02670000
    91  O          0.62390000       0.52450000       0.52670000
    92  O          0.37610000       0.02450000       0.97330000
    93  S          0.38290000       0.39820000       0.55840000
    94  S          0.61710000       0.89820000       0.94160000
    95  S          0.61710000       0.60180000       0.44160000
    96  S          0.38290000       0.10180000       0.05840000
    97  S          0.35580000       0.17410000       0.37810000
    98  S          0.64420000       0.67410000       0.12190000
    99  S          0.64420000       0.82590000       0.62190000
   100  S          0.35580000       0.32590000       0.87810000
   101  C          0.63340000       0.33740000       0.81420000
   102  C          0.36660000       0.83740000       0.68580000
   103  C          0.36660000       0.66260000       0.18580000
   104  C          0.63340000       0.16260000       0.31420000
   105  C          0.64520000       0.41350000       0.74200000
   106  C          0.35480000       0.91350000       0.75800000
   107  C          0.35480000       0.58650000       0.25800000
   108  C          0.64520000       0.08650000       0.24200000
   109  C          0.72250000       0.42670000       0.74080000
   110  C          0.27750000       0.92670000       0.75920000
   111  C          0.27750000       0.57330000       0.25920000
   112  C          0.72250000       0.07330000       0.24080000
   113  C          0.79000000       0.36300000       0.81410000
   114  C          0.21000000       0.86300000       0.68590000
   115  C          0.21000000       0.63700000       0.18590000
   116  C          0.79000000       0.13700000       0.31410000
   117  C          0.77780000       0.28880000       0.88670000
   118  C          0.22220000       0.78880000       0.61330000
   119  C          0.22220000       0.71120000       0.11330000
   120  C          0.77780000       0.21120000       0.38670000
   121  C          0.69910000       0.27700000       0.88800000
   122  C          0.30090000       0.77700000       0.61200000
   123  C          0.30090000       0.72300000       0.11200000
   124  C          0.69910000       0.22300000       0.38800000
   125  C          0.90620000       0.11010000       0.76000000
   126  C          0.09380000       0.61010000       0.74000000
   127  C          0.09380000       0.88990000       0.24000000
   128  C          0.90620000       0.38990000       0.26000000
   129  C          0.89720000       0.86910000       0.69070000
   130  C          0.10280000       0.36910000       0.80930000
   131  C          0.10280000       0.13090000       0.30930000
   132  C          0.89720000       0.63090000       0.19070000
   133  C          0.86480000       0.95480000       0.61410000
   134  C          0.13520000       0.45480000       0.88590000
   135  C          0.13520000       0.04520000       0.38590000
   136  C          0.86480000       0.54520000       0.11410000
   137  H          0.50800000       0.35600000       0.77000000
   138  H          0.49200000       0.85600000       0.73000000
   139  H          0.49200000       0.64400000       0.23000000
   140  H          0.50800000       0.14400000       0.27000000
   141  H          0.53700000       0.22300000       0.83100000
   142  H          0.46300000       0.72300000       0.66900000
   143  H          0.46300000       0.77700000       0.16900000
   144  H          0.53700000       0.27700000       0.33100000
   145  H          0.60300000       0.45900000       0.68600000
   146  H          0.39700000       0.95900000       0.81400000
   147  H          0.39700000       0.54100000       0.31400000
   148  H          0.60300000       0.04100000       0.18600000
   149  H          0.74400000       0.47700000       0.67600000
   150  H          0.25600000       0.97700000       0.82400000
   151  H          0.25600000       0.52300000       0.32400000
   152  H          0.74400000       0.02300000       0.17600000
   153  H          0.81900000       0.25500000       0.92100000
   154  H          0.18100000       0.75500000       0.57900000
   155  H          0.18100000       0.74500000       0.07900000
   156  H          0.81900000       0.24500000       0.42100000
   157  H          0.69600000       0.22100000       0.94600000
   158  H          0.30400000       0.72100000       0.55400000
   159  H          0.30400000       0.77900000       0.05400000
   160  H          0.69600000       0.27900000       0.44600000
   161  H          0.94100000       0.91400000       0.83800000
   162  H          0.05900000       0.41400000       0.66200000
   163  H          0.05900000       0.08600000       0.16200000
   164  H          0.94100000       0.58600000       0.33800000
   165  H          0.90200000       0.75400000       0.69800000
   166  H          0.09800000       0.25400000       0.80200000
   167  H          0.09800000       0.24600000       0.30200000
   168  H          0.90200000       0.74600000       0.19800000
   169  H          0.88000000       0.92600000       0.53400000
   170  H          0.12000000       0.42600000       0.96600000
   171  H          0.12000000       0.07400000       0.46600000
   172  H          0.88000000       0.57400000       0.03400000
   173  N          0.55380000       0.32300000       0.81720000
   174  N          0.44620000       0.82300000       0.68280000
   175  N          0.44620000       0.67700000       0.18280000
   176  N          0.55380000       0.17700000       0.31720000
   177  N          0.92580000       0.20500000       0.83180000
   178  N          0.07420000       0.70500000       0.66820000
   179  N          0.07420000       0.79500000       0.16820000
   180  N          0.92580000       0.29500000       0.33180000
   181  N          0.92020000       0.95610000       0.77060000
   182  N          0.07980000       0.45610000       0.72940000
   183  N          0.07980000       0.04390000       0.22940000
   184  N          0.92020000       0.54390000       0.27060000
   185  O          0.93970000       0.46110000       0.90270000
   186  O          0.06030000       0.96110000       0.59730000
   187  O          0.06030000       0.53890000       0.09730000
   188  O          0.93970000       0.03890000       0.40270000
   189  O          0.88700000       0.45020000       0.73230000
   190  O          0.11300000       0.95020000       0.76770000
   191  O          0.11300000       0.54980000       0.26770000
   192  O          0.88700000       0.04980000       0.23230000
   193  S          0.89160000       0.38020000       0.81780000
   194  S          0.10840000       0.88020000       0.68220000
   195  S          0.10840000       0.61980000       0.18220000
   196  S          0.89160000       0.11980000       0.31780000
   197  S          0.86350000       0.15130000       0.64040000
   198  S          0.13650000       0.65130000       0.85960000
   199  S          0.13650000       0.84870000       0.35960000
   200  S          0.86350000       0.34870000       0.14040000
