data_SUTHAZ
_symmetry_space_group_name_H-M    'P1'
_symmetry_Int_Tables_number       1
loop_
_symmetry_equiv_pos_site_id
_symmetry_equiv_pos_as_xyz
1 x,y,z
_cell_length_a                   8.2354
_cell_length_b                   8.5504
_cell_length_c                   15.5588
_cell_angle_alpha                90.0
_cell_angle_beta                 93.671
_cell_angle_gamma                90.0
loop_
_atom_site_label
_atom_site_type_symbol
_atom_site_fract_x
_atom_site_fract_y
_atom_site_fract_z
     1  C          0.26130000       0.83360000       0.75400000
     2  C          0.73870000       0.33360000       0.74600000
     3  C          0.73870000       0.16640000       0.24600000
     4  C          0.26130000       0.66640000       0.25400000
     5  C          0.28390000       0.91610000       0.83120000
     6  C          0.71610000       0.41610000       0.66880000
     7  C          0.71610000       0.08390000       0.16880000
     8  C          0.28390000       0.58390000       0.33120000
     9  C          0.43740000       0.93320000       0.87100000
    10  C          0.56260000       0.43320000       0.62900000
    11  C          0.56260000       0.06680000       0.12900000
    12  C          0.43740000       0.56680000       0.37100000
    13  C          0.57130000       0.86870000       0.83390000
    14  C          0.42870000       0.36870000       0.66610000
    15  C          0.42870000       0.13130000       0.16610000
    16  C          0.57130000       0.63130000       0.33390000
    17  C          0.54980000       0.78760000       0.75680000
    18  C          0.45020000       0.28760000       0.74320000
    19  C          0.45020000       0.21240000       0.24320000
    20  C          0.54980000       0.71240000       0.25680000
    21  C          0.39750000       0.77130000       0.71730000
    22  C          0.60250000       0.27130000       0.78270000
    23  C          0.60250000       0.22870000       0.28270000
    24  C          0.39750000       0.72870000       0.21730000
    25  C          0.79910000       0.62530000       0.95060000
    26  C          0.20090000       0.12530000       0.54940000
    27  C          0.20090000       0.37470000       0.04940000
    28  C          0.79910000       0.87470000       0.45060000
    29  C          0.77950000       0.38630000       0.01510000
    30  C          0.22050000       0.88630000       0.48490000
    31  C          0.22050000       0.61370000       0.98490000
    32  C          0.77950000       0.11370000       0.51510000
    33  C          0.71680000       0.47150000       0.07500000
    34  C          0.28320000       0.97150000       0.42500000
    35  C          0.28320000       0.52850000       0.92500000
    36  C          0.71680000       0.02850000       0.57500000
    37  H          0.08700000       0.72200000       0.69000000
    38  H          0.91300000       0.22200000       0.81000000
    39  H          0.91300000       0.27800000       0.31000000
    40  H          0.08700000       0.77800000       0.19000000
    41  H          0.02600000       0.84400000       0.73800000
    42  H          0.97400000       0.34400000       0.76200000
    43  H          0.97400000       0.15600000       0.26200000
    44  H          0.02600000       0.65600000       0.23800000
    45  H          0.19500000       0.95800000       0.85700000
    46  H          0.80500000       0.45800000       0.64300000
    47  H          0.80500000       0.04200000       0.14300000
    48  H          0.19500000       0.54200000       0.35700000
    49  H          0.45800000      -0.01000000       0.92500000
    50  H          0.54200000       0.49000000       0.57500000
    51  H          0.54200000       0.01000000       0.07500000
    52  H          0.45800000       0.51000000       0.42500000
    53  H          0.64000000       0.74600000       0.73200000
    54  H          0.36000000       0.24600000       0.76800000
    55  H          0.36000000       0.25400000       0.26800000
    56  H          0.64000000       0.75400000       0.23200000
    57  H          0.39000000       0.72000000       0.66500000
    58  H          0.61000000       0.22000000       0.83500000
    59  H          0.61000000       0.28000000       0.33500000
    60  H          0.39000000       0.78000000       0.16500000
    61  H          0.85900000       0.43400000       0.89800000
    62  H          0.14100000       0.93400000       0.60200000
    63  H          0.14100000       0.56600000       0.10200000
    64  H          0.85900000       0.06600000       0.39800000
    65  H          0.79400000       0.28100000       0.01700000
    66  H          0.20600000       0.78100000       0.48300000
    67  H          0.20600000       0.71900000       0.98300000
    68  H          0.79400000       0.21900000       0.51700000
    69  H          0.67200000       0.44600000       0.12300000
    70  H          0.32800000       0.94600000       0.37700000
    71  H          0.32800000       0.55400000       0.87700000
    72  H          0.67200000       0.05400000       0.62300000
    73  N          0.10760000       0.81570000       0.71110000
    74  N          0.89240000       0.31570000       0.78890000
    75  N          0.89240000       0.18430000       0.28890000
    76  N          0.10760000       0.68430000       0.21110000
    77  N          0.84020000       0.71860000       0.88850000
    78  N          0.15980000       0.21860000       0.61150000
    79  N          0.15980000       0.28140000       0.11150000
    80  N          0.84020000       0.78140000       0.38850000
    81  N          0.82590000       0.47210000       0.94610000
    82  N          0.17410000       0.97210000       0.55390000
    83  N          0.17410000       0.52790000       0.05390000
    84  N          0.82590000       0.02790000       0.44610000
    85  O          0.86450000       0.97130000       0.82140000
    86  O          0.13550000       0.47130000       0.67860000
    87  O          0.13550000       0.02870000       0.17860000
    88  O          0.86450000       0.52870000       0.32140000
    89  O          0.75550000       0.96560000       0.96420000
    90  O          0.24450000       0.46560000       0.53580000
    91  O          0.24450000       0.03440000       0.03580000
    92  O          0.75550000       0.53440000       0.46420000
    93  S          0.76880000       0.89110000       0.88230000
    94  S          0.23120000       0.39110000       0.61770000
    95  S          0.23120000       0.10890000       0.11770000
    96  S          0.76880000       0.60890000       0.38230000
    97  S          0.71380000       0.66650000       0.04760000
    98  S          0.28620000       0.16650000       0.45240000
    99  S          0.28620000       0.33350000       0.95240000
   100  S          0.71380000       0.83350000       0.54760000
