data_SUTHAZ04
_symmetry_space_group_name_H-M    'P1'
_symmetry_Int_Tables_number       1
loop_
_symmetry_equiv_pos_site_id
_symmetry_equiv_pos_as_xyz
1 x,y,z
_cell_length_a                   10.8673
_cell_length_b                   11.4563
_cell_length_c                   8.5432
_cell_angle_alpha                90.0
_cell_angle_beta                 90.0
_cell_angle_gamma                91.872
loop_
_atom_site_label
_atom_site_type_symbol
_atom_site_fract_x
_atom_site_fract_y
_atom_site_fract_z
     1  S          0.51521000       0.23781000       0.88401000
     2  S          0.98479000       0.26219000       0.38401000
     3  S          0.48479000       0.76219000       0.11599000
     4  S          0.01521000       0.73781000       0.61599000
     5  S          0.65581000       0.43081000       0.65881000
     6  S          0.84419000       0.06919000       0.15881000
     7  S          0.34419000       0.56919000       0.34119000
     8  S          0.15581000       0.93081000       0.84119000
     9  O          0.59502000       0.32542000       0.95693000
    10  O          0.90498000       0.17458000       0.45693000
    11  O          0.40498000       0.67458000       0.04307000
    12  O          0.09502000       0.82542000       0.54307000
    13  O          0.49983000       0.12742000       0.96343000
    14  O          0.00017000       0.37258000       0.46343000
    15  O          0.50017000       0.87258000       0.03657000
    16  O         -0.00017000       0.62742000       0.53657000
    17  N          0.61093000       0.27182000       0.46183000
    18  N          0.88907000       0.22818000       0.96183000
    19  N          0.38907000       0.72818000       0.53817000
    20  N          0.11093000       0.77182000       0.03817000
    21  N          0.55533000       0.20702000       0.70853000
    22  N          0.94467000       0.29298000       0.20853000
    23  N          0.44467000       0.79298000       0.29147000
    24  N          0.05533000       0.70702000       0.79147000
    25  N          0.01523000       0.42812000       0.80843000
    26  N          0.48477000       0.07188000       0.30843000
    27  N          0.98477000       0.57188000       0.19157000
    28  N          0.51523000       0.92812000       0.69157000
    29  C          0.36823000       0.29723000       0.86474000
    30  C          0.13177000       0.20277000       0.36474000
    31  C          0.63177000       0.70277000       0.13526000
    32  C          0.86823000       0.79723000       0.63526000
    33  C          0.34183000       0.40463000       0.92984000
    34  C          0.15817000       0.09537000       0.42984000
    35  C          0.65817000       0.59537000       0.07016000
    36  C          0.84183000       0.90463000       0.57016000
    37  C          0.22463000       0.44753000       0.91324000
    38  C          0.27537000       0.05247000       0.41324000
    39  C          0.77537000       0.55247000       0.08676000
    40  C          0.72463000       0.94753000       0.58676000
    41  C          0.13443000       0.38573000       0.82934000
    42  C          0.36557000       0.11427000       0.32934000
    43  C          0.86557000       0.61427000       0.17066000
    44  C          0.63443000       0.88573000       0.67066000
    45  C          0.16203000       0.27613000       0.76834000
    46  C          0.33797000       0.22387000       0.26834000
    47  C          0.83797000       0.72387000       0.23166000
    48  C          0.66203000       0.77613000       0.73166000
    49  C          0.27753000       0.23363000       0.78424000
    50  C          0.22247000       0.26637000       0.28424000
    51  C          0.72247000       0.76637000       0.21576000
    52  C          0.77753000       0.73363000       0.71576000
    53  C          0.60063000       0.29053000       0.61544000
    54  C          0.89937000       0.20947000       0.11544000
    55  C          0.39937000       0.70947000       0.38456000
    56  C          0.10063000       0.79053000       0.88456000
    57  C          0.65894000       0.36473000       0.37504000
    58  C          0.84106000       0.13527000       0.87504000
    59  C          0.34106000       0.63527000       0.62496000
    60  C          0.15894000       0.86473000       0.12496000
    61  C          0.68724000       0.45724000       0.46176000
    62  C          0.81276000       0.04276000       0.96176000
    63  C          0.31276000       0.54276000       0.53824000
    64  C          0.18724000       0.95724000       0.03824000
    65  H          0.40840000       0.45040000      -0.01050000
    66  H          0.09160000       0.04960000       0.48950000
    67  H          0.59160000       0.54960000       0.01050000
    68  H          0.90840000       0.95040000       0.51050000
    69  H          0.20630000       0.52430000       0.96340000
    70  H          0.29370000       0.97570000       0.46340000
    71  H          0.79370000       0.47570000       0.03660000
    72  H          0.70630000       0.02430000       0.53660000
    73  H          0.10130000       0.23230000       0.71140000
    74  H          0.39870000       0.26770000       0.21140000
    75  H          0.89870000       0.76770000       0.28860000
    76  H          0.60130000       0.73230000       0.78860000
    77  H          0.30240000       0.16430000       0.73750000
    78  H          0.19760000       0.33570000       0.23750000
    79  H          0.69760000       0.83570000       0.26250000
    80  H          0.80240000       0.66430000       0.76250000
    81  H          0.67950000       0.35040000       0.26060000
    82  H          0.82050000       0.14960000       0.76060000
    83  H          0.32050000       0.64960000       0.73940000
    84  H          0.17950000       0.85040000       0.23940000
    85  H          0.71570000       0.53770000       0.43310000
    86  H          0.78430000       0.96230000       0.93310000
    87  H          0.28430000       0.46230000       0.56690000
    88  H          0.21570000       0.03770000       0.06690000
    89  H          0.58740000       0.19940000       0.42660000
    90  H          0.91260000       0.30060000       0.92660000
    91  H          0.41260000       0.80060000       0.57340000
    92  H          0.08740000       0.69940000       0.07340000
    93  H          0.00940000       0.41740000       0.70750000
    94  H          0.49060000       0.08260000       0.20750000
    95  H         -0.00940000       0.58260000       0.29250000
    96  H          0.50940000       0.91740000       0.79250000
    97  H          0.01750000       0.49840000       0.82660000
    98  H          0.48250000       0.00160000       0.32660000
    99  H          0.98250000       0.50160000       0.17340000
   100  H          0.51750000      -0.00160000       0.67340000
