data_SUYNAB03
_symmetry_space_group_name_H-M    'P1'
_symmetry_Int_Tables_number       1
loop_
_symmetry_equiv_pos_site_id
_symmetry_equiv_pos_as_xyz
1 x,y,z
_cell_length_a                   9.795912
_cell_length_b                   9.941712
_cell_length_c                   17.6782
_cell_angle_alpha                90.0
_cell_angle_beta                 94.47801
_cell_angle_gamma                90.0
loop_
_atom_site_label
_atom_site_type_symbol
_atom_site_fract_x
_atom_site_fract_y
_atom_site_fract_z
     1  N          0.34243000       0.60847000       0.93370130
     2  N          0.65757000       0.10847000       0.06629870
     3  N          0.76998000       0.33588000       0.88762120
     4  N          0.23002000       0.83588000       0.11237880
     5  N          0.57913000       0.62937000       0.74500130
     6  N          0.42087000       0.12937000       0.25499870
     7  N          0.35220180       0.27788000       0.45792100
     8  N          0.64779820       0.77788000       0.54207900
     9  C          0.34412000       0.57647000       0.87178140
    10  C          0.65588000       0.07647000       0.12821860
    11  C          0.35552000       0.53898000       0.79395120
    12  C          0.64448000       0.03898000       0.20604880
    13  C          0.25962000       0.46298000       0.75280120
    14  C          0.74038000       0.96298000       0.24719880
    15  C          0.12722000       0.43408000       0.78303120
    16  C          0.87278000       0.93408000       0.21696880
    17  C          0.05152000       0.53348000       0.81747120
    18  C          0.94848000       0.03348000       0.18252880
    19  H          0.08360000       0.62370000       0.81870000
    20  H          0.91640000       0.12370000       0.18130000
    21  C          0.93138000       0.50298000       0.84963130
    22  C          0.06862000       0.00298000       0.15036870
    23  H          0.88050000       0.57280000       0.87100000
    24  H          0.11950000       0.07280000       0.12900000
    25  C          0.88308000       0.36938000       0.85116120
    26  C          0.11692000       0.86938000       0.14883880
    27  C          0.95758000       0.27038000       0.81448120
    28  C          0.04242000       0.77038000       0.18551880
    29  H          0.92650000       0.17980000       0.81340000
    30  H          0.07350000       0.67980000       0.18660000
    31  C          0.07462000       0.30318000       0.78035120
    32  C          0.92538000       0.80318000       0.21964880
    33  H          0.12070000       0.23540000       0.75430000
    34  H          0.87930000       0.73540000       0.24570000
    35  C          0.72417000       0.19697000       0.88835160
    36  C          0.27583000       0.69697000       0.11164840
    37  H          0.64240000       0.19040000       0.91670000
    38  H          0.35760000       0.69040000       0.08330000
    39  H          0.70220000       0.16620000       0.83610000
    40  H          0.29780000       0.66620000       0.16390000
    41  H          0.79700000       0.14050000       0.91270000
    42  H          0.20300000       0.64050000       0.08730000
    43  C          0.69297000       0.43797000       0.92534160
    44  C          0.30703000       0.93797000       0.07465840
    45  H          0.61580000       0.39560000       0.94820000
    46  H          0.38420000       0.89560000       0.05180000
    47  H          0.75290000       0.48170000       0.96500000
    48  H          0.24710000       0.98170000       0.03500000
    49  H          0.65840000       0.50540000       0.88820000
    50  H          0.34160000       0.00540000       0.11180000
    51  C          0.47833000       0.58787000       0.76453130
    52  C          0.52167000       0.08787000       0.23546870
    53  C          0.28512000       0.40968000       0.67804120
    54  C          0.71488000       0.90968000       0.32195880
    55  C          0.41382000       0.36228000       0.66020130
    56  C          0.58618000       0.86228000       0.33979870
    57  H          0.48720000       0.36060000       0.69860000
    58  H          0.51280000       0.86060000       0.30140000
    59  C          0.43602000       0.31828000       0.58839130
    60  C          0.56398000       0.81828000       0.41160870
    61  H          0.52370000       0.28490000       0.57850000
    62  H          0.47630000       0.78490000       0.42150000
    63  C          0.33072000       0.32208000       0.52897120
    64  C          0.66928000       0.82208000       0.47102880
    65  C          0.20122000       0.36908000       0.54697120
    66  C          0.79878000       0.86908000       0.45302880
    67  H          0.12820000       0.37370000       0.50840000
    68  H          0.87180000       0.87370000       0.49160000
    69  C          0.17932000       0.40838000       0.61982120
    70  C          0.82068000       0.90838000       0.38017880
    71  H          0.09000000       0.43550000       0.63090000
    72  H          0.91000000       0.93550000       0.36910000
    73  C          0.48782000       0.23527000       0.43983150
    74  C          0.51218000       0.73527000       0.56016850
    75  H          0.48460000       0.20690000       0.38660000
    76  H          0.51540000       0.70690000       0.61340000
    77  H          0.55210000       0.31040000       0.44800000
    78  H          0.44790000       0.81040000       0.55200000
    79  H          0.51830000       0.15990000       0.47260000
    80  H          0.48170000       0.65990000       0.52740000
    81  C          0.24782000       0.29597000       0.39552130
    82  C          0.75218000       0.79597000       0.60447870
    83  H          0.28040000       0.25850000       0.34890000
    84  H          0.71960000       0.75850000       0.65110000
    85  H          0.16370000       0.24950000       0.40730000
    86  H          0.83630000       0.74950000       0.59270000
    87  H          0.22880000       0.39210000       0.38830000
    88  H          0.77120000       0.89210000       0.61170000
    89  N          0.38682000       0.13373000       0.89386150
    90  N          0.61318000       0.63373000       0.10613850
    91  N          0.80508000       0.82778000       0.92975110
    92  N          0.19492000       0.32778000       0.07024890
    93  N          0.56432000       0.03043000       0.69193130
    94  N          0.43568000       0.53043000       0.30806870
    95  N          0.16972000       0.82288000       0.42465100
    96  N          0.83028000       0.32288000       0.57534900
    97  C          0.36622000       0.07733000       0.83771150
    98  C          0.63378000       0.57733000       0.16228850
    99  C          0.34712000       0.01272000       0.76521130
   100  C          0.65288000       0.51272000       0.23478870
   101  C          0.22772000       0.94818000       0.73895120
   102  C          0.77228000       0.44818000       0.26104880
   103  C          0.12042000       0.91508000       0.78848120
   104  C          0.87958000       0.41508000       0.21151880
   105  C          0.14732000       0.88718000       0.86630130
   106  C          0.85268000       0.38718000       0.13369870
   107  H          0.23930000       0.88850000       0.88760000
   108  H          0.76070000       0.38850000       0.11240000
   109  C          0.04492000       0.85808000       0.91220120
   110  C          0.95508000       0.35808000       0.08779880
   111  H          0.06760000       0.83760000       0.96410000
   112  H          0.93240000       0.33760000       0.03590000
   113  C          0.90548000       0.85808000       0.88354120
   114  C          0.09452000       0.35808000       0.11645880
   115  C          0.87758000       0.88598000       0.80550130
   116  C          0.12242000       0.38598000       0.19449870
   117  H          0.78560000       0.88680000       0.78410000
   118  H          0.21440000       0.38680000       0.21590000
   119  C          0.98218000       0.91218000       0.76016120
   120  C          0.01782000       0.41218000       0.23983880
   121  H          0.96040000       0.92890000       0.70770000
   122  H          0.03960000       0.42890000       0.29230000
   123  C          0.83907000       0.80587000       0.01053140
   124  C          0.16093000       0.30587000       0.98946860
   125  H          0.75540000       0.78530000       0.03520000
   126  H          0.24460000       0.28530000       0.96480000
   127  H          0.90320000       0.73050000       0.01760000
   128  H          0.09680000       0.23050000       0.98240000
   129  H          0.88140000       0.88730000       0.03310000
   130  H          0.11860000       0.38730000       0.96690000
   131  C          0.66037000       0.83747000       0.90472160
   132  C          0.33963000       0.33747000       0.09527840
   133  H          0.60550000       0.81140000       0.94630000
   134  H          0.39450000       0.31140000       0.05370000
   135  H          0.63850000       0.93030000       0.88950000
   136  H          0.36150000       0.43030000       0.11050000
   137  H          0.63990000       0.77730000       0.86140000
   138  H          0.36010000       0.27730000       0.13860000
   139  C          0.46532000       0.02133000       0.72189130
   140  C          0.53468000       0.52133000       0.27810870
   141  C          0.20692000       0.91528000       0.65755120
   142  C          0.79308000       0.41528000       0.34244880
   143  C          0.23252000       0.01172000       0.60289120
   144  C          0.76748000       0.51172000       0.39710880
   145  H          0.26210000       0.09890000       0.61890000
   146  H          0.73790000       0.59890000       0.38110000
   147  C          0.21602000       0.98348000       0.52647130
   148  C          0.78398000       0.48348000       0.47352870
   149  H          0.23150000       0.05220000       0.49080000
   150  H          0.76850000       0.55220000       0.50920000
   151  C          0.17652000       0.85438000       0.50043120
   152  C          0.82348000       0.35438000       0.49956880
   153  C          0.14662000       0.75808000       0.55556120
   154  C          0.85338000       0.25808000       0.44443880
   155  H          0.11670000       0.67080000       0.53990000
   156  H          0.88330000       0.17080000       0.46010000
   157  C          0.16022000       0.78908000       0.63185120
   158  C          0.83978000       0.28908000       0.36814880
   159  H          0.13730000       0.72330000       0.66770000
   160  H          0.86270000       0.22330000       0.33230000
   161  C          0.13953000       0.68667000       0.39917140
   162  C          0.86047000       0.18667000       0.60082860
   163  H          0.13870000       0.68280000       0.34370000
   164  H          0.86130000       0.18280000       0.65630000
   165  H          0.20970000       0.62550000       0.42180000
   166  H          0.79030000       0.12550000       0.57820000
   167  H          0.04960000       0.65980000       0.41480000
   168  H          0.95040000       0.15980000       0.58520000
   169  C          0.20513000       0.92277000       0.36920130
   170  C          0.79487000       0.42277000       0.63079870
   171  H          0.19450000       0.88350000       0.31820000
   172  H          0.80550000       0.38350000       0.68180000
   173  H          0.14430000       0.00070000       0.37150000
   174  H          0.85570000       0.50070000       0.62850000
   175  H          0.30020000       0.95130000       0.38050000
   176  H          0.69980000       0.45130000       0.61950000
