data_SUYNAB
_symmetry_space_group_name_H-M    'P1'
_symmetry_Int_Tables_number       1
loop_
_symmetry_equiv_pos_site_id
_symmetry_equiv_pos_as_xyz
1 x,y,z
_cell_length_a                   11.8043
_cell_length_b                   9.2992
_cell_length_c                   15.3581
_cell_angle_alpha                90.0
_cell_angle_beta                 98.4402
_cell_angle_gamma                90.0
loop_
_atom_site_label
_atom_site_type_symbol
_atom_site_fract_x
_atom_site_fract_y
_atom_site_fract_z
     1  N          0.66271000       0.43492000       0.47911000
     2  N          0.16271000       0.93492000       0.47911000
     3  N          0.33729000       0.43492000       0.02089000
     4  N          0.83729000       0.93492000       0.02089000
     5  N          0.33729000       0.56508000       0.52089000
     6  N          0.83729000       0.06508000       0.52089000
     7  N          0.66271000       0.56508000       0.97911000
     8  N          0.16271000       0.06508000       0.97911000
     9  N          0.63412000       0.81038000       0.67101000
    10  N          0.13412000       0.31038000       0.67101000
    11  N          0.36588000       0.81038000       0.82899000
    12  N          0.86588000       0.31038000       0.82899000
    13  N          0.36588000       0.18962000       0.32899000
    14  N          0.86588000       0.68962000       0.32899000
    15  N          0.63412000       0.18962000       0.17101000
    16  N          0.13412000       0.68962000       0.17101000
    17  C          0.50000000       0.11663000       0.75000000
    18  C         -0.00000000       0.61663000       0.75000000
    19  C          0.50000000       0.88337000       0.25000000
    20  C          0.00000000       0.38337000       0.25000000
    21  C          0.50000000       0.96677000       0.75000000
    22  C         -0.00000000       0.46677000       0.75000000
    23  C          0.50000000       0.03323000       0.25000000
    24  C          0.00000000       0.53323000       0.25000000
    25  C          0.54532000       0.19602000       0.68121000
    26  C          0.04532000       0.69602000       0.68121000
    27  C          0.45468000       0.19602000       0.81879000
    28  C          0.95468000       0.69602000       0.81879000
    29  C          0.45468000       0.80398000       0.31879000
    30  C          0.95468000       0.30398000       0.31879000
    31  C          0.54532000       0.80398000       0.18121000
    32  C          0.04532000       0.30398000       0.18121000
    33  C          0.53112000       0.14662000       0.59351000
    34  C          0.03112000       0.64662000       0.59351000
    35  C          0.46888000       0.14662000       0.90649000
    36  C          0.96888000       0.64662000       0.90649000
    37  C          0.46888000       0.85338000       0.40649000
    38  C          0.96888000       0.35338000       0.40649000
    39  C          0.53112000       0.85338000       0.09351000
    40  C          0.03112000       0.35338000       0.09351000
    41  C          0.56762000       0.22492000       0.52711000
    42  C          0.06762000       0.72492000       0.52711000
    43  C          0.43238000       0.22492000       0.97289000
    44  C          0.93238000       0.72492000       0.97289000
    45  C          0.43238000       0.77508000       0.47289000
    46  C          0.93238000       0.27508000       0.47289000
    47  C          0.56762000       0.77508000       0.02711000
    48  C          0.06762000       0.27508000       0.02711000
    49  C          0.62381000       0.35852000       0.54441000
    50  C          0.12381000       0.85852000       0.54441000
    51  C          0.37619000       0.35852000       0.95559000
    52  C          0.87619000       0.85852000       0.95559000
    53  C          0.37619000       0.64148000       0.45559000
    54  C          0.87619000       0.14148000       0.45559000
    55  C          0.62381000       0.64148000       0.04441000
    56  C          0.12381000       0.14148000       0.04441000
    57  C          0.63852000       0.40882000       0.63231000
    58  C          0.13852000       0.90882000       0.63231000
    59  C          0.36148000       0.40882000       0.86769000
    60  C          0.86148000       0.90882000       0.86769000
    61  C          0.36148000       0.59118000       0.36769000
    62  C          0.86148000       0.09118000       0.36769000
    63  C          0.63852000       0.59118000       0.13231000
    64  C          0.13852000       0.09118000       0.13231000
    65  C          0.60002000       0.32992000       0.69771000
    66  C          0.10002000       0.82992000       0.69771000
    67  C          0.39998000       0.32992000       0.80229000
    68  C          0.89998000       0.82992000       0.80229000
    69  C          0.39998000       0.67008000       0.30229000
    70  C          0.89998000       0.17008000       0.30229000
    71  C          0.60002000       0.67008000       0.19771000
    72  C          0.10002000       0.17008000       0.19771000
    73  C          0.64722000       0.38312000       0.38891000
    74  C          0.14722000       0.88312000       0.38891000
    75  C          0.35278000       0.38312000       0.11109000
    76  C          0.85278000       0.88312000       0.11109000
    77  C          0.35278000       0.61688000       0.61109000
    78  C          0.85278000       0.11688000       0.61109000
    79  C          0.64722000       0.61688000       0.88891000
    80  C          0.14722000       0.11688000       0.88891000
    81  C          0.71022000       0.57792000       0.49562000
    82  C          0.21022000       0.07792000       0.49562000
    83  C          0.28978000       0.57792000       0.00438000
    84  C          0.78978000       0.07792000       0.00438000
    85  C          0.28978000       0.42208000       0.50438000
    86  C          0.78978000       0.92208000       0.50438000
    87  C          0.71022000       0.42208000      -0.00438000
    88  C          0.21022000       0.92208000      -0.00438000
    89  C          0.57392000       0.88288000       0.70421000
    90  C          0.07392000       0.38288000       0.70421000
    91  C          0.42608000       0.88288000       0.79579000
    92  C          0.92608000       0.38288000       0.79579000
    93  C          0.42608000       0.11712000       0.29579000
    94  C          0.92608000       0.61712000       0.29579000
    95  C          0.57392000       0.11712000       0.20421000
    96  C          0.07392000       0.61712000       0.20421000
    97  H          0.49340000       0.05480000       0.58060000
    98  H         -0.00660000       0.55480000       0.58060000
    99  H          0.50660000       0.05480000       0.91940000
   100  H          0.00660000       0.55480000       0.91940000
   101  H          0.50660000       0.94520000       0.41940000
   102  H          0.00660000       0.44520000       0.41940000
   103  H          0.49340000       0.94520000       0.08060000
   104  H         -0.00660000       0.44520000       0.08060000
   105  H          0.55050000       0.19530000       0.46250000
   106  H          0.05050000       0.69530000       0.46250000
   107  H          0.44950000       0.19530000       0.03750000
   108  H          0.94950000       0.69530000       0.03750000
   109  H          0.44950000       0.80470000       0.53750000
   110  H          0.94950000       0.30470000       0.53750000
   111  H          0.55050000       0.80470000       0.96250000
   112  H          0.05050000       0.30470000       0.96250000
   113  H          0.67260000       0.48740000       0.64490000
   114  H          0.17260000      -0.01260000       0.64490000
   115  H          0.32740000       0.48740000       0.85510000
   116  H          0.82740000      -0.01260000       0.85510000
   117  H          0.32740000       0.51260000       0.35510000
   118  H          0.82740000       0.01260000       0.35510000
   119  H          0.67260000       0.51260000       0.14490000
   120  H          0.17260000       0.01260000       0.14490000
   121  H          0.61390000       0.36930000       0.75650000
   122  H          0.11390000       0.86930000       0.75650000
   123  H          0.38610000       0.36930000       0.74350000
   124  H          0.88610000       0.86930000       0.74350000
   125  H          0.38610000       0.63070000       0.24350000
   126  H          0.88610000       0.13070000       0.24350000
   127  H          0.61390000       0.63070000       0.25650000
   128  H          0.11390000       0.13070000       0.25650000
   129  H          0.66580000       0.28230000       0.39020000
   130  H          0.16580000       0.78230000       0.39020000
   131  H          0.33420000       0.28230000       0.10980000
   132  H          0.83420000       0.78230000       0.10980000
   133  H          0.33420000       0.71770000       0.60980000
   134  H          0.83420000       0.21770000       0.60980000
   135  H          0.66580000       0.71770000       0.89020000
   136  H          0.16580000       0.21770000       0.89020000
   137  H          0.69840000       0.43660000       0.35220000
   138  H          0.19840000       0.93660000       0.35220000
   139  H          0.30160000       0.43660000       0.14780000
   140  H          0.80160000       0.93660000       0.14780000
   141  H          0.30160000       0.56340000       0.64780000
   142  H          0.80160000       0.06340000       0.64780000
   143  H          0.69840000       0.56340000       0.85220000
   144  H          0.19840000       0.06340000       0.85220000
   145  H          0.56710000       0.39990000       0.35770000
   146  H          0.06710000       0.89990000       0.35770000
   147  H          0.43290000       0.39990000       0.14230000
   148  H          0.93290000       0.89990000       0.14230000
   149  H          0.43290000       0.60010000       0.64230000
   150  H          0.93290000       0.10010000       0.64230000
   151  H          0.56710000       0.60010000       0.85770000
   152  H          0.06710000       0.10010000       0.85770000
   153  H          0.66160000       0.64200000       0.52460000
   154  H          0.16160000       0.14200000       0.52460000
   155  H          0.33840000       0.64200000       0.97540000
   156  H          0.83840000       0.14200000       0.97540000
   157  H          0.33840000       0.35800000       0.47540000
   158  H          0.83840000       0.85800000       0.47540000
   159  H          0.66160000       0.35800000       0.02460000
   160  H          0.16160000       0.85800000       0.02460000
   161  H          0.77670000       0.57810000       0.54760000
   162  H          0.27670000       0.07810000       0.54760000
   163  H          0.22330000       0.57810000       0.95240000
   164  H          0.72330000       0.07810000       0.95240000
   165  H          0.22330000       0.42190000       0.45240000
   166  H          0.72330000       0.92190000       0.45240000
   167  H          0.77670000       0.42190000       0.04760000
   168  H          0.27670000       0.92190000       0.04760000
   169  H          0.75310000       0.60680000       0.44900000
   170  H          0.25310000       0.10680000       0.44900000
   171  H          0.24690000       0.60680000       0.05100000
   172  H          0.74690000       0.10680000       0.05100000
   173  H          0.24690000       0.39320000       0.55100000
   174  H          0.74690000       0.89320000       0.55100000
   175  H          0.75310000       0.39320000       0.94900000
   176  H          0.25310000       0.89320000       0.94900000
