data_SUYNAB02
_symmetry_space_group_name_H-M    'P1'
_symmetry_Int_Tables_number       1
loop_
_symmetry_equiv_pos_site_id
_symmetry_equiv_pos_as_xyz
1 x,y,z
_cell_length_a                   8.49207
_cell_length_b                   13.949711
_cell_length_c                   15.075014
_cell_angle_alpha                90.0
_cell_angle_beta                 100.06201
_cell_angle_gamma                90.0
loop_
_atom_site_label
_atom_site_type_symbol
_atom_site_fract_x
_atom_site_fract_y
_atom_site_fract_z
     1  N          0.78396180       0.29756900       0.65638900
     2  N          0.21603820       0.29756900       0.84361100
     3  N          0.28396180       0.79756900       0.65638900
     4  N          0.71603820       0.79756900       0.84361100
     5  N          0.21603820       0.70243100       0.34361100
     6  N          0.78396180       0.70243100       0.15638900
     7  N          0.71603820       0.20243100       0.34361100
     8  N          0.28396180       0.20243100       0.15638900
     9  N          0.62956150       0.88502900       0.46382800
    10  N          0.37043850       0.88502900       0.03617200
    11  N          0.12956150       0.38502900       0.46382800
    12  N          0.87043850       0.38502900       0.03617200
    13  N          0.37043850       0.11497100       0.53617200
    14  N          0.62956150       0.11497100       0.96382800
    15  N          0.87043850       0.61497100       0.53617200
    16  N          0.12956150       0.61497100       0.96382800
    17  C          0.87905170       0.24848900       0.69583900
    18  C          0.12094830       0.24848900       0.80416100
    19  C          0.37905170       0.74848900       0.69583900
    20  C          0.62094830       0.74848900       0.80416100
    21  C          0.12094830       0.75151100       0.30416100
    22  C          0.87905170       0.75151100       0.19583900
    23  C          0.62094830       0.25151100       0.30416100
    24  C          0.37905170       0.25151100       0.19583900
    25  C          0.00000000       0.19212120       0.75000000
    26  C          0.50000000       0.69212120       0.75000000
    27  C         -0.00000000       0.80787880       0.25000000
    28  C          0.50000000       0.30787880       0.25000000
    29  C          0.00000000       0.09251120       0.75000000
    30  C          0.50000000       0.59251120       0.75000000
    31  C         -0.00000000       0.90748880       0.25000000
    32  C          0.50000000       0.40748880       0.25000000
    33  C          0.90331150       0.03984800       0.67616800
    34  C          0.09668850       0.03984800       0.82383200
    35  C          0.40331150       0.53984800       0.67616800
    36  C          0.59668850       0.53984800       0.82383200
    37  C          0.09668850       0.96015200       0.32383200
    38  C          0.90331150       0.96015200       0.17616800
    39  C          0.59668850       0.46015200       0.32383200
    40  C          0.40331150       0.46015200       0.17616800
    41  C          0.88183160       0.07234900       0.58690800
    42  C          0.11816840       0.07234900       0.91309200
    43  C          0.38183160       0.57234900       0.58690800
    44  C          0.61816840       0.57234900       0.91309200
    45  C          0.11816840       0.92765100       0.41309200
    46  C          0.88183160       0.92765100       0.08690800
    47  C          0.61816840       0.42765100       0.41309200
    48  C          0.38183160       0.42765100       0.08690800
    49  H          0.92950000       0.12970000       0.57450000
    50  H          0.07050000       0.12970000       0.92550000
    51  H          0.42950000       0.62970000       0.57450000
    52  H          0.57050000       0.62970000       0.92550000
    53  H          0.07050000       0.87030000       0.42550000
    54  H          0.92950000       0.87030000       0.07450000
    55  H          0.57050000       0.37030000       0.42550000
    56  H          0.42950000       0.37030000       0.07450000
    57  C          0.79284160       0.02241900       0.51727800
    58  C          0.20715840       0.02241900       0.98272200
    59  C          0.29284160       0.52241900       0.51727800
    60  C          0.70715840       0.52241900       0.98272200
    61  C          0.20715840       0.97758100       0.48272200
    62  C          0.79284160       0.97758100       0.01727800
    63  C          0.70715840       0.47758100       0.48272200
    64  C          0.29284160       0.47758100       0.01727800
    65  H          0.78250000       0.04610000       0.45890000
    66  H          0.21750000       0.04610000       0.04110000
    67  H          0.28250000       0.54610000       0.45890000
    68  H          0.71750000       0.54610000       0.04110000
    69  H          0.21750000       0.95390000       0.54110000
    70  H          0.78250000       0.95390000       0.95890000
    71  H          0.71750000       0.45390000       0.54110000
    72  H          0.28250000       0.45390000       0.95890000
    73  C          0.71689150       0.93592900       0.53269800
    74  C          0.28310850       0.93592900       0.96730200
    75  C          0.21689150       0.43592900       0.53269800
    76  C          0.78310850       0.43592900       0.96730200
    77  C          0.28310850       0.06407100       0.46730200
    78  C          0.71689150       0.06407100       0.03269800
    79  C          0.78310850       0.56407100       0.46730200
    80  C          0.21689150       0.56407100       0.03269800
    81  C          0.73759160       0.90314900       0.62244900
    82  C          0.26240840       0.90314900       0.87755100
    83  C          0.23759160       0.40314900       0.62244900
    84  C          0.76240840       0.40314900       0.87755100
    85  C          0.26240840       0.09685100       0.37755100
    86  C          0.73759160       0.09685100       0.12244900
    87  C          0.76240840       0.59685100       0.37755100
    88  C          0.23759160       0.59685100       0.12244900
    89  H          0.68800000       0.84660000       0.63520000
    90  H          0.31200000       0.84660000       0.86480000
    91  H          0.18800000       0.34660000       0.63520000
    92  H          0.81200000       0.34660000       0.86480000
    93  H          0.31200000       0.15340000       0.36480000
    94  H          0.68800000       0.15340000       0.13520000
    95  H          0.81200000       0.65340000       0.36480000
    96  H          0.18800000       0.65340000       0.13520000
    97  C          0.82948160       0.95291900       0.69138800
    98  C          0.17051840       0.95291900       0.80861200
    99  C          0.32948160       0.45291900       0.69138800
   100  C          0.67051840       0.45291900       0.80861200
   101  C          0.17051840       0.04708100       0.30861200
   102  C          0.82948160       0.04708100       0.19138800
   103  C          0.67051840       0.54708100       0.30861200
   104  C          0.32948160       0.54708100       0.19138800
   105  H          0.84300000       0.92830000       0.74960000
   106  H          0.15700000       0.92830000       0.75040000
   107  H          0.34300000       0.42830000       0.74960000
   108  H          0.65700000       0.42830000       0.75040000
   109  H          0.15700000       0.07170000       0.25040000
   110  H          0.84300000       0.07170000       0.24960000
   111  H          0.65700000       0.57170000       0.25040000
   112  H          0.34300000       0.57170000       0.24960000
   113  C          0.60752000       0.91861150       0.37169100
   114  C          0.39248000       0.91861150       0.12830900
   115  C          0.10752000       0.41861150       0.37169100
   116  C          0.89248000       0.41861150       0.12830900
   117  C          0.39248000       0.08138850       0.62830900
   118  C          0.60752000       0.08138850       0.87169100
   119  C          0.89248000       0.58138850       0.62830900
   120  C          0.10752000       0.58138850       0.87169100
   121  H          0.54780000       0.97740000       0.36650000
   122  H          0.45220000       0.97740000       0.13350000
   123  H          0.04780000       0.47740000       0.36650000
   124  H          0.95220000       0.47740000       0.13350000
   125  H          0.45220000       0.02260000       0.63350000
   126  H          0.54780000       0.02260000       0.86650000
   127  H          0.95220000       0.52260000       0.63350000
   128  H          0.04780000       0.52260000       0.86650000
   129  H          0.55000000       0.87120000       0.33260000
   130  H          0.45000000       0.87120000       0.16740000
   131  H          0.05000000       0.37120000       0.33260000
   132  H          0.95000000       0.37120000       0.16740000
   133  H          0.45000000       0.12880000       0.66740000
   134  H          0.55000000       0.12880000       0.83260000
   135  H          0.95000000       0.62880000       0.66740000
   136  H          0.05000000       0.62880000       0.83260000
   137  H          0.70990000       0.92950000       0.35490000
   138  H          0.29010000       0.92950000       0.14510000
   139  H          0.20990000       0.42950000       0.35490000
   140  H          0.79010000       0.42950000       0.14510000
   141  H          0.29010000       0.07050000       0.64510000
   142  H          0.70990000       0.07050000       0.85490000
   143  H          0.79010000       0.57050000       0.64510000
   144  H          0.20990000       0.57050000       0.85490000
   145  C          0.54271190       0.79927120       0.48118110
   146  C          0.45728810       0.79927120       0.01881890
   147  C          0.04271190       0.29927120       0.48118110
   148  C          0.95728810       0.29927120       0.01881890
   149  C          0.45728810       0.20072880       0.51881890
   150  C          0.54271190       0.20072880       0.98118110
   151  C          0.95728810       0.70072880       0.51881890
   152  C          0.04271190       0.70072880       0.98118110
   153  H          0.61570000       0.75390000       0.51390000
   154  H          0.38430000       0.75390000       0.98610000
   155  H          0.11570000       0.25390000       0.51390000
   156  H          0.88430000       0.25390000       0.98610000
   157  H          0.38430000       0.24610000       0.48610000
   158  H          0.61570000       0.24610000       0.01390000
   159  H          0.88430000       0.74610000       0.48610000
   160  H          0.11570000       0.74610000       0.01390000
   161  H          0.49270000       0.77150000       0.42500000
   162  H          0.50730000       0.77150000       0.07500000
   163  H         -0.00730000       0.27150000       0.42500000
   164  H          0.00730000       0.27150000       0.07500000
   165  H          0.50730000       0.22850000       0.57500000
   166  H          0.49270000       0.22850000       0.92500000
   167  H          0.00730000       0.72850000       0.57500000
   168  H         -0.00730000       0.72850000       0.92500000
   169  H          0.46240000       0.81580000       0.51610000
   170  H          0.53760000       0.81580000       0.98390000
   171  H          0.96240000       0.31580000       0.51610000
   172  H          0.03760000       0.31580000       0.98390000
   173  H          0.53760000       0.18420000       0.48390000
   174  H          0.46240000       0.18420000       0.01610000
   175  H          0.03760000       0.68420000       0.48390000
   176  H          0.96240000       0.68420000       0.01610000
