data_SUZGIE
_symmetry_space_group_name_H-M    'P1'
_symmetry_Int_Tables_number       1
loop_
_symmetry_equiv_pos_site_id
_symmetry_equiv_pos_as_xyz
1 x,y,z
_cell_length_a                   10.52452
_cell_length_b                   7.15641
_cell_length_c                   13.58703
_cell_angle_alpha                90.0
_cell_angle_beta                 93.9602
_cell_angle_gamma                90.0
loop_
_atom_site_label
_atom_site_type_symbol
_atom_site_fract_x
_atom_site_fract_y
_atom_site_fract_z
     1  O          0.85860100       0.43448140       0.05682700
     2  O          0.64139900       0.93448140       0.44317300
     3  O          0.14139900       0.56551860       0.94317300
     4  O          0.35860100       0.06551860       0.55682700
     5  N          0.11062100       0.26331160       0.07724800
     6  N          0.38937900       0.76331160       0.42275200
     7  N          0.88937900       0.73668840       0.92275200
     8  N          0.61062100       0.23668840       0.57724800
     9  C          0.87427880       0.27613180       0.09016900
    10  C          0.62572120       0.77613180       0.40983100
    11  C          0.12572120       0.72386820       0.90983100
    12  C          0.37427880       0.22386820       0.59016900
    13  C          0.76465880       0.15732180       0.11989900
    14  C          0.73534120       0.65732180       0.38010100
    15  C          0.23534120       0.84267820       0.88010100
    16  C          0.26465880       0.34267820       0.61989900
    17  C          0.80151880       0.01890190       0.20323100
    18  C          0.69848120       0.51890190       0.29676900
    19  C          0.19848120      -0.01890190       0.79676900
    20  C          0.30151880       0.48109810       0.70323100
    21  C          0.91264880       0.89239820       0.17805900
    22  C          0.58735120       0.39239820       0.32194100
    23  C          0.08735120       0.10760180       0.82194100
    24  C          0.41264880       0.60760180       0.67805900
    25  C          0.01788120       0.00943170       0.14160900
    26  C          0.48211880       0.50943170       0.35839100
    27  C          0.98211880      -0.00943170       0.85839100
    28  C          0.51788120       0.49056830       0.64160900
    29  C          0.15114120       0.97462820       0.13993900
    30  C          0.34885880       0.47462820       0.36006100
    31  C          0.84885880       0.02537180       0.86006100
    32  C          0.65114120       0.52537180       0.63993900
    33  C          0.22998130       0.82282820       0.16994900
    34  C          0.27001870       0.32282820       0.33005100
    35  C          0.77001870       0.17717180       0.83005100
    36  C          0.72998130       0.67717180       0.66994900
    37  C          0.35880130       0.83874810       0.15961100
    38  C          0.14119870       0.33874810       0.34038900
    39  C          0.64119870       0.16125190       0.84038900
    40  C          0.85880130       0.66125190       0.65961100
    41  C          0.41100120       0.00095190       0.11902100
    42  C          0.08899880       0.50095190       0.38097900
    43  C          0.58899880      -0.00095190       0.88097900
    44  C          0.91100120       0.49904810       0.61902100
    45  C          0.33738120       0.15274180       0.08785900
    46  C          0.16261880       0.65274180       0.41214100
    47  C          0.66261880       0.84725820       0.91214100
    48  C          0.83738120       0.34725820       0.58785900
    49  C          0.20563120       0.13615170       0.09939900
    50  C          0.29436880       0.63615170       0.40060100
    51  C          0.79436880       0.86384830       0.90060100
    52  C          0.70563120       0.36384830       0.59939900
    53  C         -0.00264120       0.18558180       0.10250900
    54  C          0.50264120       0.68558180       0.39749100
    55  C          0.00264120       0.81441820       0.89749100
    56  C          0.49735880       0.31441820       0.60250900
    57  C          0.39245130       0.32542000       0.04456110
    58  C          0.10754870       0.82542000       0.45543890
    59  C          0.60754870       0.67458000       0.95543890
    60  C          0.89245130       0.17458000       0.54456110
    61  H          0.69652000       0.24034000       0.14124000
    62  H          0.80348000       0.74034000       0.35876000
    63  H          0.30348000       0.75966000       0.85876000
    64  H          0.19652000       0.25966000       0.64124000
    65  H          0.72960000       0.08665000       0.06153000
    66  H          0.77040000       0.58665000       0.43847000
    67  H          0.27040000       0.91335000       0.93847000
    68  H          0.22960000       0.41335000       0.56153000
    69  H          0.82590000       0.08918000       0.26440000
    70  H          0.67410000       0.58918000       0.23560000
    71  H          0.17410000       0.91082000       0.73560000
    72  H          0.32590000       0.41082000       0.76440000
    73  H          0.72685000       0.94040000       0.21569000
    74  H          0.77315000       0.44040000       0.28431000
    75  H          0.27315000       0.05960000       0.78431000
    76  H          0.22685000       0.55960000       0.71569000
    77  H          0.88306000       0.80134000       0.12660000
    78  H          0.61694000       0.30134000       0.37340000
    79  H          0.11694000       0.19866000       0.87340000
    80  H          0.38306000       0.69866000       0.62660000
    81  H          0.94443000       0.82197000       0.23745000
    82  H          0.55557000       0.32197000       0.26255000
    83  H          0.05557000       0.17803000       0.76255000
    84  H          0.44443000       0.67803000       0.73745000
    85  H          0.19525000       0.71277000       0.19651000
    86  H          0.30475000       0.21277000       0.30349000
    87  H          0.80475000       0.28723000       0.80349000
    88  H          0.69525000       0.78723000       0.69651000
    89  H          0.41364000       0.73863000       0.18020000
    90  H          0.08636000       0.23863000       0.31980000
    91  H          0.58636000       0.26137000       0.81980000
    92  H          0.91364000       0.76137000       0.68020000
    93  H          0.50030000       0.00602000       0.11288000
    94  H         -0.00030000       0.50602000       0.38712000
    95  H          0.49970000      -0.00602000       0.88712000
    96  H          0.00030000       0.49398000       0.61288000
    97  H          0.11911600       0.36730000       0.04551300
    98  H          0.38088400       0.86730000       0.45448700
    99  H          0.88088400       0.63270000       0.95448700
   100  H          0.61911600       0.13270000       0.54551300
   101  H          0.48445000       0.30932000       0.04072000
   102  H          0.01555000       0.80932000       0.45928000
   103  H          0.51555000       0.69068000       0.95928000
   104  H          0.98445000       0.19068000       0.54072000
   105  H          0.35236000       0.34649000       0.97823000
   106  H          0.14764000       0.84649000       0.52177000
   107  H          0.64764000       0.65351000       0.02177000
   108  H          0.85236000       0.15351000       0.47823000
   109  H          0.37648000       0.43317000       0.08648000
   110  H          0.12352000       0.93317000       0.41352000
   111  H          0.62352000       0.56683000       0.91352000
   112  H          0.87648000       0.06683000       0.58648000
