data_SUZGIE01
_symmetry_space_group_name_H-M    'P1'
_symmetry_Int_Tables_number       1
loop_
_symmetry_equiv_pos_site_id
_symmetry_equiv_pos_as_xyz
1 x,y,z
_cell_length_a                   5.0184
_cell_length_b                   11.7179
_cell_length_c                   18.07214
_cell_angle_alpha                90.0
_cell_angle_beta                 90.0
_cell_angle_gamma                90.0
loop_
_atom_site_label
_atom_site_type_symbol
_atom_site_fract_x
_atom_site_fract_y
_atom_site_fract_z
     1  O          0.01045000       0.72172000       0.05583140
     2  O          0.48955000       0.27828000       0.55583140
     3  O          0.51045000       0.77828000       0.94416860
     4  O         -0.01045000       0.22172000       0.44416860
     5  N          0.14216000       0.58513000       0.92270810
     6  N          0.35784000       0.41487000       0.42270810
     7  N          0.64216000       0.91487000       0.07729190
     8  N          0.85784000       0.08513000       0.57729190
     9  H          0.24380000       0.64630000       0.92220000
    10  H          0.25620000       0.35370000       0.42220000
    11  H          0.74380000       0.85370000       0.07780000
    12  H          0.75620000       0.14630000       0.57780000
    13  C          0.29877000       0.48824000       0.80438000
    14  C          0.20123000       0.51176000       0.30438000
    15  C          0.79877000       0.01176000       0.19562000
    16  C          0.70123000      -0.01176000       0.69562000
    17  C          0.14137000       0.49903000       0.86888000
    18  C          0.35863000       0.50097000       0.36888000
    19  C          0.64137000       0.00097000       0.13112000
    20  C          0.85863000      -0.00097000       0.63112000
    21  C          0.66043000       0.58604000       0.08782000
    22  C          0.83957000       0.41396000       0.58782000
    23  C          0.16043000       0.91396000       0.91218000
    24  C          0.33957000       0.08604000       0.41218000
    25  H          0.49240000       0.61850000       0.06830000
    26  H          0.00760000       0.38150000       0.56830000
    27  H         -0.00760000       0.88150000       0.93170000
    28  H          0.50760000       0.11850000       0.43170000
    29  H          0.68280000       0.61350000       0.13920000
    30  H          0.81720000       0.38650000       0.63920000
    31  H          0.18280000       0.88650000       0.86080000
    32  H          0.31720000       0.11350000       0.36080000
    33  C          0.94393000       0.41553000       0.89138000
    34  C          0.55607000       0.58447000       0.39138000
    35  C          0.44393000       0.08447000       0.10862000
    36  C          0.05607000       0.91553000       0.60862000
    37  C          0.24967000       0.39194000       0.76148000
    38  C          0.25033000       0.60806000       0.26148000
    39  C          0.74967000       0.10806000       0.23852000
    40  C          0.75033000       0.89194000       0.73852000
    41  H          0.35060000       0.38090000       0.71760000
    42  H          0.14940000       0.61910000       0.21760000
    43  H          0.85060000       0.11910000       0.28240000
    44  H          0.64940000       0.88090000       0.78240000
    45  C          0.04917000       0.30734000       0.78127000
    46  C          0.45083000       0.69266000       0.28127000
    47  C          0.54917000       0.19266000       0.21873000
    48  C          0.95083000       0.80734000       0.71873000
    49  H          0.02040000       0.24330000       0.75000000
    50  H          0.47960000       0.75670000       0.25000000
    51  H          0.52040000       0.25670000       0.25000000
    52  H         -0.02040000       0.74330000       0.75000000
    53  C          0.83013000       0.45403000       0.95988000
    54  C          0.66987000       0.54597000       0.45988000
    55  C          0.33013000       0.04597000       0.04012000
    56  C          0.16987000       0.95403000       0.54012000
    57  C          0.95443000       0.55803000       0.97758000
    58  C          0.54557000       0.44197000       0.47758000
    59  C          0.45443000       0.94197000       0.02242000
    60  C          0.04557000       0.05803000       0.52242000
    61  C          0.50777000       0.57844000       0.78428000
    62  C         -0.00777000       0.42156000       0.28428000
    63  C          0.00777000       0.92156000       0.21572000
    64  C          0.49223000       0.07844000       0.71572000
    65  H          0.64530000       0.54380000       0.75300000
    66  H          0.85470000       0.45620000       0.25300000
    67  H          0.14530000       0.95620000       0.24700000
    68  H          0.35470000       0.04380000       0.74700000
    69  H          0.58960000       0.60810000       0.82960000
    70  H          0.91040000       0.39190000       0.32960000
    71  H          0.08960000       0.89190000       0.17040000
    72  H          0.41040000       0.10810000       0.67040000
    73  H          0.42180000       0.64100000       0.75740000
    74  H          0.07820000       0.35900000       0.25740000
    75  H          0.92180000       0.85900000       0.24260000
    76  H          0.57820000       0.14100000       0.74260000
    77  C          0.89033000       0.62954000       0.04152000
    78  C          0.60967000       0.37046000       0.54152000
    79  C          0.39033000       0.87046000       0.95848000
    80  C          0.10967000       0.12954000       0.45848000
    81  C          0.61863000       0.40064000       0.01012000
    82  C          0.88137000       0.59936000       0.51012000
    83  C          0.11863000       0.09936000       0.98988000
    84  C          0.38137000       0.90064000       0.48988000
    85  H          0.64650000       0.31710000       0.01300000
    86  H          0.85350000       0.68290000       0.51300000
    87  H          0.14650000       0.18290000       0.98700000
    88  H          0.35350000       0.81710000       0.48700000
    89  H          0.43930000       0.41460000       0.98920000
    90  H          0.06070000       0.58540000       0.48920000
    91  H          0.93930000       0.08540000       0.01080000
    92  H          0.56070000       0.91460000       0.51080000
    93  C          0.89992000       0.31944000       0.84517000
    94  C          0.60008000       0.68056000       0.34517000
    95  C          0.39992000       0.18056000       0.15483000
    96  C          0.10008000       0.81944000       0.65483000
    97  H          0.76970000       0.26400000       0.85800000
    98  H          0.73030000       0.73600000       0.35800000
    99  H          0.26970000       0.23600000       0.14200000
   100  H          0.23030000       0.76400000       0.64200000
   101  C          0.63652000       0.45333000       0.08882000
   102  C          0.86348000       0.54667000       0.58882000
   103  C          0.13652000       0.04667000       0.91118000
   104  C          0.36348000       0.95333000       0.41118000
   105  H          0.79350000       0.42100000       0.11460000
   106  H          0.70650000       0.57900000       0.61460000
   107  H          0.29350000       0.07900000       0.88540000
   108  H          0.20650000       0.92100000       0.38540000
   109  H          0.47580000       0.43150000       0.11720000
   110  H          0.02420000       0.56850000       0.61720000
   111  H         -0.02420000       0.06850000       0.88280000
   112  H          0.52420000       0.93150000       0.38280000
