data_SUZGIE02
_symmetry_space_group_name_H-M    'P1'
_symmetry_Int_Tables_number       1
loop_
_symmetry_equiv_pos_site_id
_symmetry_equiv_pos_as_xyz
1 x,y,z
_cell_length_a                   9.49055
_cell_length_b                   4.93702
_cell_length_c                   21.835911
_cell_angle_alpha                90.0
_cell_angle_beta                 95.1035
_cell_angle_gamma                90.0
loop_
_atom_site_label
_atom_site_type_symbol
_atom_site_fract_x
_atom_site_fract_y
_atom_site_fract_z
     1  N          0.14932180       0.88543000       0.42677800
     2  N          0.85067820       0.38543000       0.07322200
     3  N          0.85067820       0.11457000       0.57322200
     4  N          0.14932180       0.61457000       0.92677800
     5  H          0.14080000      -0.00760000       0.45850000
     6  H          0.85920000       0.49240000       0.04150000
     7  H          0.85920000       0.00760000       0.54150000
     8  H          0.14080000       0.50760000       0.95850000
     9  C          0.26432000       0.86994000       0.39313900
    10  C          0.73568000       0.36994000       0.10686100
    11  C          0.73568000       0.13006000       0.60686100
    12  C          0.26432000       0.63006000       0.89313900
    13  C          0.34202000       0.60544000       0.30797100
    14  C          0.65798000       0.10544000       0.19202900
    15  C          0.65798000       0.39456000       0.69202900
    16  C          0.34202000       0.89456000       0.80797100
    17  H          0.32570000       0.47150000       0.27690000
    18  H          0.67430000       0.97150000       0.22310000
    19  H          0.67430000       0.52850000       0.72310000
    20  H          0.32570000       0.02850000       0.77690000
    21  C          0.39312000       0.01374000       0.40121110
    22  C          0.60688000       0.51374000       0.09878890
    23  C          0.60688000      -0.01374000       0.59878890
    24  C          0.39312000       0.48626000       0.90121110
    25  C          0.09762000       0.56964000       0.35259100
    26  C          0.90238000       0.06964000       0.14740900
    27  C          0.90238000       0.43036000       0.64740900
    28  C          0.09762000       0.93036000       0.85259100
    29  O          0.87622820       0.76473000       0.47154800
    30  O          0.12377180       0.26473000       0.02845200
    31  O          0.12377180       0.23527000       0.52845200
    32  O          0.87622820       0.73527000       0.97154800
    33  C          0.23642000       0.67194000       0.34645900
    34  C          0.76358000       0.17194000       0.15354100
    35  C          0.76358000       0.32806000       0.65354100
    36  C          0.23642000       0.82806000       0.84645900
    37  C          0.91598000       0.64744000       0.42681100
    38  C          0.08402000       0.14744000       0.07318900
    39  C          0.08402000       0.35256000       0.57318900
    40  C          0.91598000       0.85256000       0.92681100
    41  C          0.04932000       0.70364000       0.40215100
    42  C          0.95068000       0.20364000       0.09784900
    43  C          0.95068000       0.29636000       0.59784900
    44  C          0.04932000       0.79636000       0.90215100
    45  C          0.01252000       0.36224000       0.31615100
    46  C         -0.01252000       0.86224000       0.18384900
    47  C         -0.01252000       0.63776000       0.68384900
    48  C          0.01252000       0.13776000       0.81615100
    49  H          0.04390000       0.17850000       0.32940000
    50  H          0.95610000       0.67850000       0.17060000
    51  H          0.95610000       0.82150000       0.67060000
    52  H          0.04390000       0.32150000       0.82940000
    53  H          0.02630000       0.38220000       0.27200000
    54  H          0.97370000       0.88220000       0.22800000
    55  H          0.97370000       0.61780000       0.72800000
    56  H          0.02630000       0.11780000       0.77200000
    57  C          0.41702000       0.22874000       0.44910110
    58  C          0.58298000       0.72874000       0.05089890
    59  C          0.58298000       0.77126000       0.55089890
    60  C          0.41702000       0.27126000       0.94910110
    61  H          0.35770000       0.38610000       0.43740000
    62  H          0.64230000       0.88610000       0.06260000
    63  H          0.64230000       0.61390000       0.56260000
    64  H          0.35770000       0.11390000       0.93740000
    65  H          0.51680000       0.28270000       0.45260000
    66  H          0.48320000       0.78270000       0.04740000
    67  H          0.48320000       0.71730000       0.54740000
    68  H          0.51680000       0.21730000       0.95260000
    69  H          0.39230000       0.15840000       0.48870000
    70  H          0.60770000       0.65840000       0.01130000
    71  H          0.60770000       0.84160000       0.51130000
    72  H          0.39230000       0.34160000       0.98870000
    73  C          0.49292000       0.94025000       0.36187110
    74  C          0.50708000       0.44025000       0.13812890
    75  C          0.50708000       0.05975000       0.63812890
    76  C          0.49292000       0.55975000       0.86187110
    77  H          0.58180000       0.02990000       0.36570000
    78  H          0.41820000       0.52990000       0.13430000
    79  H          0.41820000       0.97010000       0.63430000
    80  H          0.58180000       0.47010000       0.86570000
    81  C          0.83048000       0.42525000       0.39401110
    82  C          0.16952000       0.92525000       0.10598890
    83  C          0.16952000       0.57475000       0.60598890
    84  C          0.83048000       0.07475000       0.89401110
    85  H          0.72880000       0.46080000       0.39730000
    86  H          0.27120000       0.96080000       0.10270000
    87  H          0.27120000       0.53920000       0.60270000
    88  H          0.72880000       0.03920000       0.89730000
    89  H          0.85420000       0.25090000       0.41480000
    90  H          0.14580000       0.75090000       0.08520000
    91  H          0.14580000       0.74910000       0.58520000
    92  H          0.85420000       0.24910000       0.91480000
    93  C          0.46932000       0.73794000       0.31614110
    94  C          0.53068000       0.23794000       0.18385890
    95  C          0.53068000       0.26206000       0.68385890
    96  C          0.46932000       0.76206000       0.81614110
    97  H          0.54250000       0.69350000       0.29090000
    98  H          0.45750000       0.19350000       0.20910000
    99  H          0.45750000       0.30650000       0.70910000
   100  H          0.54250000       0.80650000       0.79090000
   101  C          0.85578000       0.39915000       0.32594110
   102  C          0.14422000       0.89915000       0.17405890
   103  C          0.14422000       0.60085000       0.67405890
   104  C          0.85578000       0.10085000       0.82594110
   105  H          0.80180000       0.24210000       0.30810000
   106  H          0.19820000       0.74210000       0.19190000
   107  H          0.19820000       0.75790000       0.69190000
   108  H          0.80180000       0.25790000       0.80810000
   109  H          0.81980000       0.56360000       0.30380000
   110  H          0.18020000       0.06360000       0.19620000
   111  H          0.18020000       0.43640000       0.69620000
   112  H          0.81980000       0.93640000       0.80380000
