data_SUZGIE04
_symmetry_space_group_name_H-M    'P1'
_symmetry_Int_Tables_number       1
loop_
_symmetry_equiv_pos_site_id
_symmetry_equiv_pos_as_xyz
1 x,y,z
_cell_length_a                   4.91805
_cell_length_b                   17.588119
_cell_length_c                   11.975013
_cell_angle_alpha                90.0
_cell_angle_beta                 97.4323
_cell_angle_gamma                90.0
loop_
_atom_site_label
_atom_site_type_symbol
_atom_site_fract_x
_atom_site_fract_y
_atom_site_fract_z
     1  N          0.34613000       0.42781800       0.84216110
     2  N          0.65387000       0.92781800       0.65783890
     3  N          0.65387000       0.57218200       0.15783890
     4  N          0.34613000       0.07218200       0.34216110
     5  O          0.23113000       0.56233700       0.97075100
     6  O          0.76887000       0.06233700       0.52924900
     7  O          0.76887000       0.43766300       0.02924900
     8  O          0.23113000       0.93766300       0.47075100
     9  C          0.50943000       0.31340900       0.74399140
    10  C          0.49057000       0.81340900       0.75600860
    11  C          0.49057000       0.68659100       0.25600860
    12  C          0.50943000       0.18659100       0.24399140
    13  C          0.00153000       0.46517900       0.70903140
    14  C         -0.00153000       0.96517900       0.79096860
    15  C         -0.00153000       0.53482100       0.29096860
    16  C          0.00153000       0.03482100       0.20903140
    17  C          0.09054000       0.54616900       0.88159140
    18  C          0.90946000       0.04616900       0.61840860
    19  C          0.90946000       0.45383100       0.11840860
    20  C          0.09054000       0.95383100       0.38159140
    21  C          0.12303000       0.39788900       0.67050130
    22  C          0.87697000       0.89788900       0.82949870
    23  C          0.87697000       0.60211100       0.32949870
    24  C          0.12303000       0.10211100       0.17050130
    25  C          0.14404000       0.48132900       0.81305140
    26  C          0.85596000       0.98132900       0.68694860
    27  C          0.85596000       0.51867100       0.18694860
    28  C          0.14404000       0.01867100       0.31305140
    29  C          0.77266000       0.51425900       0.65479140
    30  C          0.22734000       0.01425900       0.84520860
    31  C          0.22734000       0.48574100       0.34520860
    32  C          0.77266000       0.98574100       0.15479140
    33  H          0.59420000       0.49150000       0.66620000
    34  H          0.40580000       0.99150000       0.83380000
    35  H          0.40580000       0.50850000       0.33380000
    36  H          0.59420000       0.00850000       0.16620000
    37  H          0.78120000       0.51750000       0.57280000
    38  H          0.21880000       0.01750000       0.92720000
    39  H          0.21880000       0.48250000       0.42720000
    40  H          0.78120000       0.98250000       0.07280000
    41  C          0.45584000       0.27367900       0.64397150
    42  C          0.54416000       0.77367900       0.85602850
    43  C          0.54416000       0.72632100       0.35602850
    44  C          0.45584000       0.22632100       0.14397150
    45  H          0.56900000       0.23150000       0.63180000
    46  H          0.43100000       0.73150000       0.86820000
    47  H          0.43100000       0.76850000       0.36820000
    48  H          0.56900000       0.26850000       0.13180000
    49  C          0.33753000       0.37650900       0.75482130
    50  C          0.66247000       0.87650900       0.74517870
    51  C          0.66247000       0.62349100       0.24517870
    52  C          0.33753000       0.12349100       0.25482130
    53  C          0.24094000       0.29288100       0.55925150
    54  C          0.75906000       0.79288100       0.94074850
    55  C          0.75906000       0.70711900       0.44074850
    56  C          0.24094000       0.20711900       0.05925150
    57  H          0.21160000       0.26320000       0.49250000
    58  H          0.78840000       0.76320000       0.00750000
    59  H          0.78840000       0.73680000       0.50750000
    60  H          0.21160000       0.23680000      -0.00750000
    61  C          0.84396000       0.59239100       0.83534150
    62  C          0.15604000       0.09239100       0.66465850
    63  C          0.15604000       0.40760900       0.16465850
    64  C          0.84396000       0.90760900       0.33534150
    65  H          0.86810000       0.64510000       0.86380000
    66  H          0.13190000       0.14510000       0.63620000
    67  H          0.13190000       0.35490000       0.13620000
    68  H          0.86810000       0.85490000       0.36380000
    69  H          0.67940000       0.57100000       0.86340000
    70  H          0.32060000       0.07100000       0.63660000
    71  H          0.32060000       0.42900000       0.13660000
    72  H          0.67940000       0.92900000       0.36340000
    73  C          0.73454000       0.29179100       0.83472150
    74  C          0.26546000       0.79179100       0.66527850
    75  C          0.26546000       0.70820900       0.16527850
    76  C          0.73454000       0.20820900       0.33472150
    77  H          0.65560000       0.26770000       0.89700000
    78  H          0.34440000       0.76770000       0.60300000
    79  H          0.34440000       0.73230000       0.10300000
    80  H          0.65560000       0.23230000       0.39700000
    81  H          0.83610000       0.33740000       0.86220000
    82  H          0.16390000       0.83740000       0.63780000
    83  H          0.16390000       0.66260000       0.13780000
    84  H          0.83610000       0.16260000       0.36220000
    85  H          0.85920000       0.25610000       0.80440000
    86  H          0.14080000       0.75610000       0.69560000
    87  H          0.14080000       0.74390000       0.19560000
    88  H          0.85920000       0.24390000       0.30440000
    89  C          0.07244000       0.35407100       0.57149140
    90  C          0.92756000       0.85407100       0.92850860
    91  C          0.92756000       0.64592900       0.42850860
    92  C          0.07244000       0.14592900       0.07149140
    93  H          0.92590000       0.36640000       0.51470000
    94  H          0.07410000       0.86640000       0.98530000
    95  H          0.07410000       0.63360000       0.48530000
    96  H          0.92590000       0.13360000       0.01470000
    97  C          0.79666000       0.59400100       0.70643150
    98  C          0.20334000       0.09400100       0.79356850
    99  C          0.20334000       0.40599900       0.29356850
   100  C          0.79666000       0.90599900       0.20643150
   101  H          0.95080000       0.62110000       0.67840000
   102  H          0.04920000       0.12110000       0.82160000
   103  H          0.04920000       0.37890000       0.32160000
   104  H          0.95080000       0.87890000       0.17840000
   105  H          0.62650000       0.62270000       0.68140000
   106  H          0.37350000       0.12270000       0.81860000
   107  H          0.37350000       0.37730000       0.31860000
   108  H          0.62650000       0.87730000       0.18140000
   109  H          0.48350000       0.43090000       0.89890000
   110  H          0.51650000       0.93090000       0.60110000
   111  H          0.51650000       0.56910000       0.10110000
   112  H          0.48350000       0.06910000       0.39890000
