data_TADLIU03
_symmetry_space_group_name_H-M    'P1'
_symmetry_Int_Tables_number       1
loop_
_symmetry_equiv_pos_site_id
_symmetry_equiv_pos_as_xyz
1 x,y,z
_cell_length_a                   9.48036
_cell_length_b                   9.76056
_cell_length_c                   10.93278
_cell_angle_alpha                110.8406
_cell_angle_beta                 90.3525
_cell_angle_gamma                99.7015
loop_
_atom_site_label
_atom_site_type_symbol
_atom_site_fract_x
_atom_site_fract_y
_atom_site_fract_z
     1  Cl         0.91205600       0.15635700       0.15796600
     2  Cl         0.08794400       0.84364300       0.84203400
     3  O          0.20650140       0.39722150       0.45069130
     4  O          0.79349860       0.60277850       0.54930870
     5  O          0.15960140       0.24139150       0.60854130
     6  O          0.84039860       0.75860850       0.39145870
     7  O          0.40835150       0.30733160       0.38379140
     8  O          0.59164850       0.69266840       0.61620860
     9  O          0.26044170       0.76812170       0.15751150
    10  O          0.73955830       0.23187830       0.84248850
    11  C          0.29732000       0.30352000       0.43832180
    12  C          0.70268000       0.69648000       0.56167820
    13  C          0.31092000       0.60422000       0.95189180
    14  C          0.68908000       0.39578000       0.04810820
    15  C          0.21692190       0.36102000       0.71703180
    16  C          0.78307810       0.63898000       0.28296820
    17  C          0.13112000       0.39022000       0.82344190
    18  C          0.86888000       0.60978000       0.17655810
    19  H          0.04210000       0.32980000       0.81660000
    20  H          0.95790000       0.67020000       0.18340000
    21  C          0.49402000       0.83452000       0.10012180
    22  C          0.50598000       0.16548000       0.89987820
    23  C          0.24322000       0.18472000       0.49690190
    24  C          0.75678000       0.81528000       0.50309810
    25  C          0.39402000       0.57432000       0.84346190
    26  C          0.60598000       0.42568000       0.15653810
    27  H          0.48190000       0.63610000       0.84930000
    28  H          0.51810000       0.36390000       0.15070000
    29  C          0.34892000       0.45522000       0.72782180
    30  C          0.65108000       0.54478000       0.27217820
    31  H          0.40640000       0.43780000       0.65720000
    32  H          0.59360000       0.56220000       0.34280000
    33  C          0.17792000       0.50802000       0.93836190
    34  C          0.82208000       0.49198000       0.06163810
    35  H          0.12040000       0.52470000       0.00900000
    36  H          0.87960000       0.47530000      -0.00900000
    37  C          0.24902000       0.51772000       0.39972000
    38  C          0.75098000       0.48228000       0.60028000
    39  H          0.35260000       0.55420000       0.41790000
    40  H          0.64740000       0.44580000       0.58210000
    41  C          0.62142000       0.78132000       0.06552190
    42  C          0.37858000       0.21868000       0.93447810
    43  H          0.61930000       0.67910000       0.02860000
    44  H          0.38070000       0.32090000       0.97140000
    45  C          0.34892000       0.73562000       0.07592000
    46  C          0.65108000       0.26438000       0.92408000
    47  C          0.62882000       0.08672000       0.18322000
    48  C          0.37118000       0.91328000       0.81678000
    49  H          0.63230000       0.18870000       0.22520000
    50  H          0.36770000       0.81130000       0.77480000
    51  C          0.49972000      -0.01198000       0.16214190
    52  C          0.50028000       0.01198000       0.83785810
    53  H          0.41600000       0.02410000       0.18950000
    54  H          0.58400000       0.97590000       0.81050000
    55  C          0.75102000       0.87942000       0.08562000
    56  C          0.24898000       0.12058000       0.91438000
    57  H          0.83580000       0.84380000       0.06250000
    58  H          0.16420000       0.15620000       0.93750000
    59  C          0.75212000       0.03202000       0.14102000
    60  C          0.24788000       0.96798000       0.85898000
    61  C          0.13542000       0.06322000       0.39522000
    62  C          0.86458000       0.93678000       0.60478000
    63  H          0.09801200      -0.01461300       0.43007000
    64  H          0.90198800       0.01461300       0.56993000
    65  H          0.18298000       0.01951200       0.31461200
    66  H          0.81702000      -0.01951200       0.68538800
    67  H          0.05591400       0.10667000       0.37561000
    68  H          0.94408600       0.89333000       0.62439000
    69  C          0.36552000       0.11933000       0.53312000
    70  C          0.63448000       0.88067000       0.46688000
    71  H          0.32726000       0.04571600       0.57031400
    72  H          0.67274000       0.95428400       0.42968600
    73  H          0.43331300       0.19801200       0.59661500
    74  H          0.56668700       0.80198800       0.40338500
    75  H          0.41321300       0.07281600       0.45531200
    76  H          0.58678700       0.92718400       0.54468800
    77  C          0.21303000       0.45843000       0.25322000
    78  C          0.78697000       0.54157000       0.74678000
    79  H          0.24851500       0.53581200       0.21816000
    80  H          0.75148500       0.46418800       0.78184000
    81  H          0.10911400       0.42911500       0.23514000
    82  H          0.89088600       0.57088500       0.76486000
    83  H          0.25811400       0.37191600       0.21177000
    84  H          0.74188600       0.62808400       0.78823000
    85  C          0.17053000       0.64073000       0.47413000
    86  C          0.82947000       0.35927000       0.52587000
    87  H          0.20081400       0.72901500       0.44691200
    88  H          0.79918600       0.27098500       0.55308800
    89  H          0.19431400       0.67091300       0.57101500
    90  H          0.80568600       0.32908700       0.42898500
    91  H          0.06421700       0.60438000       0.45401300
    92  H          0.93578300       0.39562000       0.54598700
