data_TADLIU
_symmetry_space_group_name_H-M    'P1'
_symmetry_Int_Tables_number       1
loop_
_symmetry_equiv_pos_site_id
_symmetry_equiv_pos_as_xyz
1 x,y,z
_cell_length_a                   8.160516
_cell_length_b                   8.266416
_cell_length_c                   14.5113
_cell_angle_alpha                93.9513
_cell_angle_beta                 105.6643
_cell_angle_gamma                96.0023
loop_
_atom_site_label
_atom_site_type_symbol
_atom_site_fract_x
_atom_site_fract_y
_atom_site_fract_z
     1  Cl         0.56390700       0.29037800       0.42848400
     2  Cl         0.43609300       0.70962200       0.57151600
     3  O          0.84131120       0.41642120       0.83905800
     4  O          0.15868880       0.58357880       0.16094200
     5  O          0.78245160       0.68641140       0.93170800
     6  O          0.21754840       0.31358860       0.06829200
     7  O          0.16190150       0.92627870       0.71558900
     8  O          0.83809850       0.07372130       0.28441100
     9  O          0.78000190       0.82642140       0.80542100
    10  O          0.21999810       0.17357860       0.19457900
    11  C          0.18172190       0.06097170       0.68797100
    12  C          0.81827810       0.93902830       0.31202900
    13  C          0.67663170       0.34356160       0.79862100
    14  C          0.32336830       0.65643840       0.20137900
    15  C          0.53632180       0.42282160       0.75832110
    16  C          0.46367820       0.57717840       0.24167890
    17  H          0.54990000       0.53560000       0.75650000
    18  H          0.45010000       0.46440000       0.24350000
    19  C          0.65445190       0.17488170       0.80155110
    20  C          0.34554810       0.82511830       0.19844890
    21  H          0.74810000       0.12180000       0.82900000
    22  H          0.25190000       0.87820000       0.17100000
    23  C          0.90392000       0.27102000       0.48911110
    24  C          0.09608000       0.72898000       0.51088890
    25  H          0.91380000       0.33490000       0.44010000
    26  H          0.08620000       0.66510000       0.55990000
    27  C          0.37547180       0.33229170       0.72069110
    28  C          0.62452820       0.66770830       0.27930890
    29  H          0.28160000       0.38560000       0.69400000
    30  H          0.71840000       0.61440000       0.30600000
    31  C          0.81198170       0.71001160       0.84840100
    32  C          0.18801830       0.28998840       0.15159900
    33  C          0.04772000       0.22088190       0.54899110
    34  C          0.95228000       0.77911810       0.45100890
    35  H          0.15520000       0.25190000       0.54060000
    36  H          0.84480000       0.74810000       0.45940000
    37  C          0.03302190       0.12374170       0.62217100
    38  C          0.96697810       0.87625830       0.37782900
    39  C          0.35218180       0.16340170       0.72222100
    40  C          0.64781820       0.83659830       0.27777900
    41  C          0.87012000       0.07593190       0.63247110
    42  C          0.12988000       0.92406810       0.36752890
    43  H          0.85840000       0.00830000       0.67950000
    44  H          0.14160000      -0.00830000       0.32050000
    45  C          0.89999180       0.57282160       0.81342110
    46  C          0.10000820       0.42717840       0.18657890
    47  C          0.49490190       0.08644160       0.76405110
    48  C          0.50509810       0.91355840       0.23594890
    49  H          0.48170000       0.97380000       0.76650000
    50  H          0.51830000       0.02620000       0.23350000
    51  C          0.87962000       0.56876190       0.70608120
    52  C          0.12038000       0.43123810       0.29391880
    53  H          0.93700000       0.48260000       0.68640000
    54  H          0.06300000       0.51740000       0.31360000
    55  H          0.92900000       0.67160000       0.69220000
    56  H          0.07100000       0.32840000       0.30780000
    57  H          0.75990000       0.54950000       0.67180000
    58  H          0.24010000       0.45050000       0.32820000
    59  C          0.74522000       0.22532000       0.50278120
    60  C          0.25478000       0.77468000       0.49721880
    61  C          0.72652000       0.12782000       0.57366120
    62  C          0.27348000       0.87218000       0.42633880
    63  H          0.61860000       0.09760000       0.58170000
    64  H          0.38140000       0.90240000       0.41830000
    65  C          0.08892000       0.60452000       0.87061150
    66  C          0.91108000       0.39548000       0.12938850
    67  H          0.09850000       0.60380000       0.93800000
    68  H          0.90150000       0.39620000       0.06200000
    69  H          0.13810000       0.70900000       0.85890000
    70  H          0.86190000       0.29100000       0.14110000
    71  H          0.14890000       0.52060000       0.85090000
    72  H          0.85110000       0.47940000       0.14910000
    73  C          0.70952000       0.81462000       0.97655120
    74  C          0.29048000       0.18538000       0.02344880
    75  H          0.68660000       0.90260000       0.93470000
    76  H          0.31340000       0.09740000       0.06530000
    77  C          0.83573000       0.87833000       0.06991170
    78  C          0.16427000       0.12167000       0.93008830
    79  H          0.85650000       0.79100000       0.11020000
    80  H          0.14350000       0.20900000       0.88980000
    81  H          0.79090000       0.96240000       0.10120000
    82  H          0.20910000       0.03760000       0.89880000
    83  H          0.94130000       0.92280000       0.05870000
    84  H          0.05870000       0.07720000       0.94130000
    85  C          0.54593000       0.73475000      -0.00947000
    86  C          0.45407000       0.26525000       0.00947000
    87  H          0.46660000       0.69710000       0.92890000
    88  H          0.53340000       0.30290000       0.07110000
    89  H          0.49720000       0.81230000       0.02400000
    90  H          0.50280000       0.18770000       0.97600000
    91  H          0.56910000       0.64360000       0.02740000
    92  H          0.43090000       0.35640000       0.97260000
