data_TADLIU04
_symmetry_space_group_name_H-M    'P1'
_symmetry_Int_Tables_number       1
loop_
_symmetry_equiv_pos_site_id
_symmetry_equiv_pos_as_xyz
1 x,y,z
_cell_length_a                   8.13285
_cell_length_b                   8.70886
_cell_length_c                   13.66929
_cell_angle_alpha                85.9766
_cell_angle_beta                 84.8155
_cell_angle_gamma                74.3436
loop_
_atom_site_label
_atom_site_type_symbol
_atom_site_fract_x
_atom_site_fract_y
_atom_site_fract_z
     1  Cl         0.40545800       0.34766800       0.09001500
     2  Cl         0.59454200       0.65233200       0.90998500
     3  O          0.15329170       0.86551170       0.37066100
     4  O          0.84670830       0.13448830       0.62933900
     5  O          0.26801180       0.78452170       0.54908110
     6  O          0.73198820       0.21547830       0.45091890
     7  O          0.72960190       0.97652000       0.05796120
     8  O          0.27039810       0.02348000       0.94203880
     9  O          0.25282000       0.53137190       0.54250120
    10  O          0.74718000       0.46862810       0.45749880
    11  C          0.30122000       0.84812000       0.31065150
    12  C          0.69878000       0.15188000       0.68934850
    13  C          0.90063000       0.72503000       0.10899140
    14  C          0.09937000       0.27497000       0.89100860
    15  C          0.42803000       0.94402000       0.16110150
    16  C          0.57197000       0.05598000       0.83889850
    17  H          0.41634000       0.01191600       0.10251400
    18  H          0.58366000      -0.01191600       0.89748600
    19  C          0.22162000       0.66822000       0.51050150
    20  C          0.77838000       0.33178000       0.48949850
    21  C          0.73793000       0.85623000       0.11187150
    22  C          0.26207000       0.14377000       0.88812850
    23  C          0.90633000       0.56323000       0.12628150
    24  C          0.09367000       0.43677000       0.87371850
    25  H          0.79920000       0.53157000       0.14314000
    26  H          0.20080000       0.46843000       0.85686000
    27  C          0.11302000       0.72822000       0.42264150
    28  C          0.88698000       0.27178000       0.57735850
    29  C          0.60223000       0.74553000       0.26667140
    30  C          0.39777000       0.25447000       0.73332860
    31  H          0.71330000       0.67521800       0.28134000
    32  H          0.28670000       0.32478200       0.71866000
    33  C          0.58883000       0.84332000       0.18068150
    34  C          0.41117000       0.15668000       0.81931850
    35  C          0.46002000       0.74732000       0.33173150
    36  C          0.53998000       0.25268000       0.66826850
    37  H          0.47154000       0.67821600       0.39201400
    38  H          0.52846000       0.32178400       0.60798600
    39  C          0.21083000       0.49383000       0.09724150
    40  C          0.78917000       0.50617000       0.90275850
    41  C          0.28633000       0.94663000       0.22508150
    42  C          0.71367000       0.05337000       0.77491850
    43  H          0.17630000       0.01691800       0.21064000
    44  H          0.82370000       0.98308200       0.78936000
    45  C          0.06183000       0.44653000       0.12013150
    46  C          0.93817000       0.55347000       0.87986850
    47  H          0.06563000       0.33730000       0.13133000
    48  H          0.93437000       0.66270000       0.86867000
    49  C          0.05393000       0.76713000       0.08407150
    50  C          0.94607000       0.23287000       0.91592850
    51  H          0.05123000       0.87630000       0.07044000
    52  H          0.94877000       0.12370000       0.92956000
    53  C          0.12823000       0.59513000       0.35328160
    54  C          0.87177000       0.40487000       0.64671840
    55  H          0.08251800       0.51021400       0.38796000
    56  H          0.91748200       0.48978600       0.61204000
    57  H          0.25001600       0.55031300       0.33129000
    58  H          0.74998400       0.44968700       0.66871000
    59  H          0.06221700       0.63847000       0.29569000
    60  H          0.93778300       0.36153000       0.70431000
    61  C          0.92827000       0.79323000       0.46470170
    62  C          0.07173000       0.20677000       0.53529830
    63  H          0.89081000       0.70861200       0.50271100
    64  H          0.10919000       0.29138800       0.49728900
    65  H          0.85458900       0.83221800       0.41127000
    66  H          0.14541100       0.16778200       0.58873000
    67  H          0.92195000       0.88011700       0.50691100
    68  H          0.07805000       0.11988300       0.49308900
    69  C          0.20953000       0.65233000       0.07902160
    70  C          0.79047000       0.34767000       0.92097840
    71  H          0.31430000       0.68229000       0.06325000
    72  H          0.68570000       0.31771000       0.93675000
    73  C          0.35903000       0.74693000       0.63977160
    74  C          0.64097000       0.25307000       0.36022840
    75  H          0.40711400       0.63530000       0.64733000
    76  H          0.59288600       0.36470000       0.35267000
    77  C          0.50003000       0.83004000       0.62612000
    78  C          0.49997000       0.16996000       0.37388000
    79  H          0.56611600       0.80841600       0.68491000
    80  H          0.43388400       0.19158400       0.31509000
    81  H          0.44988000       0.94601700       0.61651200
    82  H          0.55012000       0.05398300       0.38348800
    83  H          0.57641700       0.79001500       0.56791100
    84  H          0.42358300       0.20998500       0.43208900
    85  C          0.23013000       0.80224000       0.72435180
    86  C          0.76987000       0.19776000       0.27564820
    87  H          0.28691100       0.77920000       0.78581000
    88  H          0.71308900       0.22080000       0.21419000
    89  H          0.14020000       0.74621900       0.72668000
    90  H          0.85980000       0.25378100       0.27332000
    91  H          0.17911900       0.91720000       0.71587000
    92  H          0.82088100       0.08280000       0.28413000
