data_TADLIU02
_symmetry_space_group_name_H-M    'P1'
_symmetry_Int_Tables_number       1
loop_
_symmetry_equiv_pos_site_id
_symmetry_equiv_pos_as_xyz
1 x,y,z
_cell_length_a                   13.6197
_cell_length_b                   7.5544
_cell_length_c                   17.8809
_cell_angle_alpha                90.0
_cell_angle_beta                 92.3517
_cell_angle_gamma                90.0
loop_
_atom_site_label
_atom_site_type_symbol
_atom_site_fract_x
_atom_site_fract_y
_atom_site_fract_z
     1  C          0.98363700       0.50264860       0.29835500
     2  C          0.51636300       0.00264860       0.20164500
     3  C          0.01636300       0.49735140       0.70164500
     4  C          0.48363700      -0.00264860       0.79835500
     5  H          0.92671000       0.52080000       0.32778000
     6  H          0.57329000       0.02080000       0.17222000
     7  H          0.07329000       0.47920000       0.67222000
     8  H          0.42671000       0.97920000       0.82778000
     9  C         -0.00248300       0.33947860       0.26451600
    10  C          0.50248300       0.83947860       0.23548400
    11  C          0.00248300       0.66052140       0.73548400
    12  C          0.49751700       0.16052140       0.76451600
    13  H          0.95161100       0.24680000       0.26898000
    14  H          0.54838900       0.74680000       0.23102000
    15  H          0.04838900       0.75320000       0.73102000
    16  H          0.45161100       0.25320000       0.76898000
    17  C          0.08085700       0.31407870       0.22400500
    18  C          0.41914300       0.81407870       0.27599500
    19  C          0.91914300       0.68592130       0.77599500
    20  C          0.58085700       0.18592130       0.72400500
    21  C          0.15028700       0.44658860       0.21560600
    22  C          0.34971300       0.94658860       0.28439400
    23  C          0.84971300       0.55341140       0.78439400
    24  C          0.65028700       0.05341140       0.71560600
    25  H          0.20621100       0.42680000       0.18678000
    26  H          0.29378900       0.92680000       0.31322000
    27  H          0.79378900       0.57320000       0.81322000
    28  H          0.70621100       0.07320000       0.68678000
    29  C          0.13655700       0.60729870       0.25114600
    30  C          0.36344300       0.10729870       0.24885400
    31  C          0.86344300       0.39270130       0.74885400
    32  C          0.63655700       0.89270130       0.75114600
    33  H          0.18161000       0.69880000       0.24668000
    34  H          0.31839000       0.19880000       0.25332000
    35  H          0.81839000       0.30120000       0.75332000
    36  H          0.68161000       0.80120000       0.74668000
    37  C          0.05353700       0.63671870       0.29280500
    38  C          0.44646300       0.13671870       0.20719500
    39  C          0.94646300       0.36328130       0.70719500
    40  C          0.55353700       0.86328130       0.79280500
    41  C          0.04666700       0.80651870       0.33509500
    42  C          0.45333300       0.30651870       0.16490500
    43  C          0.95333300       0.19348130       0.66490500
    44  C          0.54666700       0.69348130       0.83509500
    45  C          0.94919700       0.88912870       0.34454500
    46  C          0.55080300       0.38912870       0.15545500
    47  C          0.05080300       0.11087130       0.65545500
    48  C          0.44919700       0.61087130       0.84454500
    49  C          0.93885700       0.00765130       0.40331500
    50  C          0.56114300       0.50765130       0.09668500
    51  C          0.06114300      -0.00765130       0.59668500
    52  C          0.43885700       0.49234870       0.90331500
    53  H         -0.00579000       0.03081900       0.43658000
    54  H          0.50579000       0.53081900       0.06342000
    55  H          0.00579000       0.96918100       0.56342000
    56  H          0.49421000       0.46918100       0.93658000
    57  C          0.84993700       0.08979140       0.41575600
    58  C          0.65006300       0.58979140       0.08424400
    59  C          0.15006300       0.91020860       0.58424400
    60  C          0.34993700       0.41020860       0.91575600
    61  H          0.84561000       0.16720000       0.45648000
    62  H          0.65439000       0.66720000       0.04352000
    63  H          0.15439000       0.83280000       0.54352000
    64  H          0.34561000       0.33280000       0.95648000
    65  C          0.76931700       0.05541130       0.36688500
    66  C          0.73068300       0.55541130       0.13311500
    67  C          0.23068300       0.94458870       0.63311500
    68  C          0.26931700       0.44458870       0.86688500
    69  C          0.77985700       0.94222860       0.30618600
    70  C          0.72014300       0.44222860       0.19381400
    71  C          0.22014300       0.05777140       0.69381400
    72  C          0.27985700       0.55777140       0.80618600
    73  H          0.72491100       0.92348100       0.27258000
    74  H          0.77508900       0.42348100       0.22742000
    75  H          0.27508900       0.07651900       0.72742000
    76  H          0.22491100       0.57651900       0.77258000
    77  C          0.86832700       0.85882860       0.29537500
    78  C          0.63167300       0.35882860       0.20462500
    79  C          0.13167300       0.14117140       0.70462500
    80  C          0.36832700       0.64117140       0.79537500
    81  H          0.87461000       0.78280000       0.25488000
    82  H          0.62539000       0.28280000       0.24512000
    83  H          0.12539000       0.21720000       0.74512000
    84  H          0.37461000       0.71720000       0.75488000
    85  C          0.65082700       0.23173140       0.43399500
    86  C          0.84917300       0.73173140       0.06600500
    87  C          0.34917300       0.76826860       0.56600500
    88  C          0.15082700       0.26826860       0.93399500
    89  C          0.54539800       0.28665170       0.41324700
    90  C          0.95460200       0.78665170       0.08675300
    91  C          0.45460200       0.71334830       0.58675300
    92  C          0.04539800       0.21334830       0.91324700
    93  H          0.54361200       0.35320000       0.36699000
    94  H          0.95638800       0.85320000       0.13301000
    95  H          0.45638800       0.64680000       0.63301000
    96  H          0.04361200       0.14680000       0.86699000
    97  H          0.51761200       0.36220000       0.45349000
    98  H          0.98238800       0.86220000       0.04651000
    99  H          0.48238800       0.63780000       0.54651000
   100  H          0.01761200       0.13780000       0.95349000
   101  H          0.50501300       0.17930000       0.40631000
   102  H         -0.00501300       0.67930000       0.09369000
   103  H          0.49498700       0.82070000       0.59369000
   104  H          0.00501300       0.32070000       0.90631000
   105  C          0.65440900       0.12729150       0.50688600
   106  C          0.84559100       0.62729150      -0.00688600
   107  C          0.34559100       0.87270850       0.49311400
   108  C          0.15440900       0.37270850       0.00688600
   109  H          0.61671300       0.01720000       0.50011000
   110  H          0.88328700       0.51720000      -0.00011000
   111  H          0.38328700      -0.01720000       0.49989000
   112  H          0.11671300       0.48280000       0.00011000
   113  H          0.62311100       0.19420000       0.54449000
   114  H          0.87688900       0.69420000       0.95551000
   115  H          0.37688900       0.80580000       0.45551000
   116  H          0.12311100       0.30580000       0.04449000
   117  H          0.72051200       0.09920000       0.52599000
   118  H          0.77948800       0.59920000       0.97401000
   119  H          0.27948800       0.90080000       0.47401000
   120  H          0.22051200       0.40080000       0.02599000
   121  C          0.71380700       0.40029140       0.43499500
   122  C          0.78619300       0.90029140       0.06500500
   123  C          0.28619300       0.59970860       0.56500500
   124  C          0.21380700       0.09970860       0.93499500
   125  C          0.77991800       0.63294140       0.51234600
   126  C          0.72008200       0.13294140       0.98765400
   127  C          0.22008200       0.36705860       0.48765400
   128  C          0.27991800       0.86705860       0.01234600
   129  H          0.76101000       0.71081900       0.47098000
   130  H          0.73899000       0.21081900       0.02902000
   131  H          0.23899000       0.28918100       0.52902000
   132  H          0.26101000       0.78918100       0.97098000
   133  C          0.88738800       0.58315170       0.51171700
   134  C          0.61261200       0.08315170       0.98828300
   135  C          0.11261200       0.41684830       0.48828300
   136  C          0.38738800       0.91684830       0.01171700
   137  H          0.90331200       0.49820000       0.55339000
   138  H          0.59668800      -0.00180000       0.94661000
   139  H          0.09668800       0.50180000       0.44661000
   140  H          0.40331200       0.00180000       0.05339000
   141  H          0.92681300       0.68930000       0.52031000
   142  H          0.57318700       0.18930000       0.97969000
   143  H          0.07318700       0.31070000       0.47969000
   144  H          0.42681300       0.81070000       0.02031000
   145  H          0.90431200       0.53220000       0.46241000
   146  H          0.59568800       0.03220000       0.03759000
   147  H          0.09568800       0.46780000       0.53759000
   148  H          0.40431200       0.96780000       0.96241000
   149  C          0.75230900       0.71124160       0.58614600
   150  C          0.74769100       0.21124160       0.91385400
   151  C          0.24769100       0.28875840       0.41385400
   152  C          0.25230900       0.78875840       0.08614600
   153  H          0.68341200       0.73820000       0.58518000
   154  H          0.81658800       0.23820000       0.91482000
   155  H          0.31658800       0.26180000       0.41482000
   156  H          0.18341200       0.76180000       0.08518000
   157  H          0.78891100       0.81920000       0.59779000
   158  H          0.71108900       0.31920000       0.90221000
   159  H          0.21108900       0.18080000       0.40221000
   160  H          0.28891100       0.68080000       0.09779000
   161  H          0.76891100       0.62720000       0.62679000
   162  H          0.73108900       0.12720000       0.87321000
   163  H          0.23108900       0.37280000       0.37321000
   164  H          0.26891100       0.87280000       0.12679000
   165  Cl         0.10023200       0.10934700       0.18293416
   166  Cl         0.39976800       0.60934700       0.31706584
   167  Cl         0.89976800       0.89065300       0.81706584
   168  Cl         0.60023200       0.39065300       0.68293416
   169  O          0.12160600       0.87312890       0.36317500
   170  O          0.37839400       0.37312890       0.13682500
   171  O          0.87839400       0.12687110       0.63682500
   172  O          0.62160600       0.62687110       0.86317500
   173  O          0.67716500       0.12387100       0.37179400
   174  O          0.82283500       0.62387100       0.12820600
   175  O          0.32283500       0.87612900       0.62820600
   176  O          0.17716500       0.37612900       0.87179400
   177  O          0.74930600       0.46191110       0.38030400
   178  O          0.75069400       0.96191110       0.11969600
   179  O          0.25069400       0.53808890       0.61969600
   180  O          0.24930600       0.03808890       0.88030400
   181  O          0.72043500       0.47133100       0.50329400
   182  O          0.77956500       0.97133100      -0.00329400
   183  O          0.27956500       0.52866900       0.49670600
   184  O          0.22043500       0.02866900       0.00329400
