data_TAPBIY
_symmetry_space_group_name_H-M    'P1'
_symmetry_Int_Tables_number       1
loop_
_symmetry_equiv_pos_site_id
_symmetry_equiv_pos_as_xyz
1 x,y,z
_cell_length_a                   8.44927
_cell_length_b                   9.11675
_cell_length_c                   9.15458
_cell_angle_alpha                81.4616
_cell_angle_beta                 77.0337
_cell_angle_gamma                80.5516
loop_
_atom_site_label
_atom_site_type_symbol
_atom_site_fract_x
_atom_site_fract_y
_atom_site_fract_z
     1  Cl         0.76030130       0.89932100       0.89382900
     2  Cl         0.23969870       0.10067900       0.10617100
     3  Cl         0.21528130       0.68767110       0.22333120
     4  Cl         0.78471870       0.31232890       0.77666880
     5  O          0.48233000       0.67778000       0.38743000
     6  O          0.51767000       0.32222000       0.61257000
     7  O          0.03753000       0.42733000       0.30973000
     8  O          0.96247000       0.57267000       0.69027000
     9  N          0.81513000       0.27443000       0.29413000
    10  N          0.18487000       0.72557000       0.70587000
    11  N          0.65434000       0.60276000       0.54604000
    12  N          0.34566000       0.39724000       0.45396000
    13  C          0.82904000       0.51994000       0.16574000
    14  C          0.17096000       0.48006000       0.83426000
    15  C          0.59044000       0.70406000       0.44624000
    16  C          0.40956000       0.29594000       0.55376000
    17  C          0.75424000       0.13494000       0.33014000
    18  C          0.24576000       0.86506000       0.66986000
    19  C          0.65234000       0.85226000       0.40824000
    20  C          0.34766000       0.14774000       0.59176000
    21  C          0.74964000       0.90146000       0.48854000
    22  C          0.25036000       0.09854000       0.51146000
    23  H          0.78190000       0.83930000       0.56990000
    24  H          0.21810000       0.16070000       0.43010000
    25  C          0.75334000       0.38504000       0.21224000
    26  C          0.24666000       0.61496000       0.78776000
    27  H          0.65700000       0.37850000       0.18180000
    28  H          0.34300000       0.62150000       0.81820000
    29  C          0.60584000       0.94726000       0.28834000
    30  C          0.39416000       0.05274000       0.71166000
    31  H          0.53880000       0.91720000       0.23360000
    32  H          0.46120000       0.08280000       0.76640000
    33  C          0.76414000       0.63384000       0.06714000
    34  C          0.23586000       0.36616000       0.93286000
    35  H          0.66950000       0.62480000       0.03520000
    36  H          0.33050000       0.37520000       0.96480000
    37  C          0.79974000       0.04104000       0.45034000
    38  C          0.20026000       0.95896000       0.54966000
    39  H          0.86480000       0.07200000       0.50620000
    40  H          0.13520000       0.92800000       0.49380000
    41  C          0.97094000       0.53424000       0.21684000
    42  C          0.02906000       0.46576000       0.78316000
    43  C          0.97674000       0.77654000       0.06734000
    44  C          0.02326000       0.22346000       0.93266000
    45  H          0.02600000       0.86290000       0.03450000
    46  H          0.97400000       0.13710000       0.96550000
    47  C          0.83965000       0.75834000       0.01794000
    48  C          0.16035000       0.24166000       0.98206000
    49  C          0.65764000       0.08624000       0.24884000
    50  C          0.34236000       0.91376000       0.75116000
    51  H          0.62710000       0.14790000       0.16640000
    52  H          0.37290000       0.85210000       0.83360000
    53  C          0.03964000       0.66604000       0.16544000
    54  C          0.96036000       0.33396000       0.83456000
    55  H          0.97750000       0.34150000       0.32040000
    56  H          0.02250000       0.65850000       0.67960000
    57  H          0.62240000       0.50960000       0.56430000
    58  H          0.37760000       0.49040000       0.43570000
    59  H          0.75040000       0.61360000       0.57240000
    60  H          0.24960000       0.38640000       0.42760000
