data_TAPBIY01
_symmetry_space_group_name_H-M    'P1'
_symmetry_Int_Tables_number       1
loop_
_symmetry_equiv_pos_site_id
_symmetry_equiv_pos_as_xyz
1 x,y,z
_cell_length_a                   8.35584
_cell_length_b                   12.75169
_cell_length_c                   13.01359
_cell_angle_alpha                78.0506
_cell_angle_beta                 77.1675
_cell_angle_gamma                88.7344
loop_
_atom_site_label
_atom_site_type_symbol
_atom_site_fract_x
_atom_site_fract_y
_atom_site_fract_z
     1  Cl         0.41394900       0.94702500       0.89100400
     2  Cl         0.58605100       0.05297500       0.10899600
     3  Cl         0.65624100       0.58168600       0.78521500
     4  Cl         0.34375900       0.41831400       0.21478500
     5  O          0.73953000       0.54013150      -0.00235140
     6  O          0.26047000       0.45986850       0.00235140
     7  H          0.75570000       0.53090000       0.05870000
     8  H          0.24430000       0.46910000       0.94130000
     9  N          0.74022000       0.58216160       0.18063150
    10  N          0.25978000       0.41783840       0.81936850
    11  C          0.54073000       0.79445190       0.02642000
    12  C          0.45927000       0.20554810       0.97358000
    13  H          0.51280000       0.83800000       0.07650000
    14  H          0.48720000       0.16200000       0.92350000
    15  C          0.61973000       0.69792180       0.05248180
    16  C          0.38027000       0.30207820       0.94751820
    17  N          0.93233000       0.30532170       0.60909160
    18  N          0.06767000       0.69467830       0.39090840
    19  H          0.93180000       0.26740000       0.67200000
    20  H          0.06820000       0.73260000       0.32800000
    21  H          0.00450000       0.29460000       0.55410000
    22  H         -0.00450000       0.70540000       0.44590000
    23  C          0.65993000       0.66690190       0.15667190
    24  C          0.34007000       0.33309810       0.84332810
    25  H          0.62680000       0.70930000       0.20740000
    26  H          0.37320000       0.29070000       0.79260000
    27  C          0.81873000       0.44087180       0.48563180
    28  C          0.18127000       0.55912820       0.51436820
    29  C          0.77043000       0.54299180       0.28443180
    30  C          0.22957000       0.45700820       0.71556820
    31  C          0.61643000       0.66404190       0.87785820
    32  C          0.38357000       0.33595810       0.12214180
    33  C          0.66073000       0.63070180       0.97684820
    34  C          0.33927000       0.36929820       0.02315180
    35  C          0.54053000       0.75962190       0.85232810
    36  C          0.45947000       0.24037810       0.14767190
    37  H          0.51350000       0.78050000       0.78560000
    38  H          0.48650000       0.21950000       0.21440000
    39  C          0.89233000       0.46833190       0.29235180
    40  C          0.10767000       0.53166810       0.70764820
    41  H          0.95810000       0.45240000       0.23010000
    42  H          0.04190000       0.54760000       0.76990000
    43  O          0.71662000       0.39745170       0.67401140
    44  O          0.28338000       0.60254830       0.32598860
    45  C          0.82203000       0.38001190       0.59683180
    46  C          0.17797000       0.61998810       0.40316820
    47  C          0.50473000       0.82452180       0.92748000
    48  C          0.49527000       0.17547820       0.07252000
    49  C          0.70433000       0.52062000       0.47632190
    50  C          0.29567000       0.47938000       0.52367810
    51  H          0.64390000       0.54060000       0.53810000
    52  H          0.35610000       0.45940000       0.46190000
    53  C          0.91713000       0.41721190       0.39236190
    54  C          0.08287000       0.58278810       0.60763810
    55  H         -0.00070000       0.36720000       0.39710000
    56  H          0.00070000       0.63280000       0.60290000
    57  C          0.67863000       0.57082000       0.37712000
    58  C          0.32137000       0.42918000       0.62288000
    59  H          0.59990000       0.62320000       0.37230000
    60  H          0.40010000       0.37680000       0.62770000
    61  Cl         0.44674900       0.75111500       0.57229600
    62  Cl         0.55325100       0.24888500       0.42770400
    63  Cl         0.21619100       0.12176600       0.66991500
    64  Cl         0.78380900       0.87823400       0.33008500
    65  O          0.12962000       0.16011140       0.45920140
    66  O          0.87038000       0.83988860       0.54079860
    67  H          0.10300000       0.16550000       0.40140000
    68  H          0.89700000       0.83450000       0.59860000
    69  N          0.10362000       0.10800150       0.28535150
    70  N          0.89638000       0.89199850       0.71464850
    71  N          0.81567000       0.34818170       0.87914840
    72  N          0.18433000       0.65181830       0.12085160
    73  H          0.77930000       0.36890000       0.82160000
    74  H          0.22070000       0.63110000       0.17840000
    75  H          0.80680000       0.38870000       0.92530000
    76  H          0.19320000       0.61130000       0.07470000
    77  C          0.17333000       0.01863190       0.31239190
    78  C          0.82667000       0.98136810       0.68760810
    79  H          0.18870000       0.96960000       0.26740000
    80  H          0.81130000       0.03040000       0.73260000
    81  C          0.32623000       0.94138000       0.60693180
    82  C          0.67377000       0.05862000       0.39306820
    83  H          0.35910000       0.92360000       0.67200000
    84  H          0.64090000       0.07640000       0.32800000
    85  C          0.05043000       0.13903180       0.18781180
    86  C          0.94957000       0.86096820       0.81218820
    87  C          0.20083000       0.06706190       0.48258180
    88  C          0.79917000       0.93293810       0.51741820
    89  C          0.30373000       0.89624810       0.44032000
    90  C          0.69627000       0.10375190       0.55968000
    91  H          0.32120000       0.84860000       0.39390000
    92  H          0.67880000       0.15140000       0.60610000
    93  O          0.90037000       0.19347160       0.83215850
    94  O          0.09963000       0.80652840       0.16784150
    95  C          0.89777000       0.26786190       0.08691190
    96  C          0.10223000       0.73213810       0.91308810
    97  H          0.83230000       0.32780000       0.08250000
    98  H          0.16770000       0.67220000       0.91750000
    99  C          0.94147000       0.21790180       0.00004180
   100  C          0.05853000       0.78209820      -0.00004180
   101  C          0.88557000       0.25366190       0.89686820
   102  C          0.11443000       0.74633810       0.10313180
   103  C          0.95187000       0.22819190       0.18018180
   104  C          0.04813000       0.77180810       0.81981820
   105  H          0.92190000       0.26160000       0.23850000
   106  H          0.07810000       0.73840000       0.76150000
   107  C          0.22753000      -0.00571180       0.41225180
   108  C          0.77247000       0.00571180       0.58774820
   109  C          0.35183000       0.87140820       0.53625190
   110  C          0.64817000       0.12859180       0.46374810
   111  C          0.09293000       0.08885190       0.10086190
   112  C          0.90707000       0.91114810       0.89913810
   113  H          0.15750000       0.02840000       0.10530000
   114  H          0.84250000       0.97160000       0.89470000
   115  C          0.25213000       0.03692000       0.57963180
   116  C          0.74787000       0.96308000       0.42036820
   117  C          0.03943000       0.12872190       0.00821190
   118  C          0.96057000       0.87127810      -0.00821190
   119  H          0.06940000       0.09530000       0.94990000
   120  H          0.93060000       0.90470000       0.05010000
