data_TAPBIY02
_symmetry_space_group_name_H-M    'P1'
_symmetry_Int_Tables_number       1
loop_
_symmetry_equiv_pos_site_id
_symmetry_equiv_pos_as_xyz
1 x,y,z
_cell_length_a                   7.27989
_cell_length_b                   13.279415
_cell_length_c                   14.54739
_cell_angle_alpha                87.6187
_cell_angle_beta                 80.8167
_cell_angle_gamma                75.7071
loop_
_atom_site_label
_atom_site_type_symbol
_atom_site_fract_x
_atom_site_fract_y
_atom_site_fract_z
     1  Cl         0.21292000       0.68493900       0.55768800
     2  Cl         0.78708000       0.31506100       0.44231200
     3  Cl         0.94298000       0.54341130       0.89165800
     4  Cl         0.05702000       0.45658870       0.10834200
     5  O          0.26536000       0.47112000       0.49702000
     6  O          0.73464000       0.52888000       0.50298000
     7  H          0.29040000       0.40890000       0.48530000
     8  H          0.70960000       0.59110000       0.51470000
     9  N          0.25667000       0.28123000       0.52193000
    10  N          0.74333000       0.71877000       0.47807000
    11  C          0.18248000       0.30204000       0.60643000
    12  C          0.81752000       0.69796000       0.39357000
    13  H          0.14990000       0.24920000       0.64470000
    14  H          0.85010000       0.75080000       0.35530000
    15  C          0.19337000       0.48644000       0.58663000
    16  C          0.80663000       0.51356000       0.41337000
    17  N          0.49157000       0.86527000       0.27053000
    18  N          0.50843000       0.13473000       0.72947000
    19  H          0.50440000       0.80660000       0.24420000
    20  H          0.49560000       0.19340000       0.75580000
    21  H          0.55000000       0.91000000       0.24360000
    22  H          0.45000000       0.09000000       0.75640000
    23  C          0.46229000       0.06124000       0.36173000
    24  C          0.53771000       0.93876000       0.63827000
    25  H          0.55330000       0.04620000       0.30840000
    26  H          0.44670000       0.95380000       0.69160000
    27  C          0.08318000       0.60234000       0.72003000
    28  C          0.91682000       0.39766000       0.27997000
    29  H          0.06260000       0.66780000       0.74570000
    30  H          0.93740000       0.33220000       0.25430000
    31  C          0.15808000       0.58403000       0.62653000
    32  C          0.84192000       0.41597000       0.37347000
    33  C          0.07198000       0.42334000       0.73913000
    34  C          0.92802000       0.57666000       0.26087000
    35  H          0.04440000       0.36940000       0.77740000
    36  H          0.95560000       0.63060000       0.22260000
    37  O          0.29597000       0.82397000       0.39293000
    38  O          0.70403000       0.17603000       0.60707000
    39  C          0.38098000       0.88677000       0.35313000
    40  C          0.61902000       0.11323000       0.64687000
    41  C          0.28998000       0.18103000       0.48323000
    42  C          0.71002000       0.81897000       0.51677000
    43  C          0.42769000       0.15624000       0.40563000
    44  C          0.57231000       0.84376000       0.59437000
    45  H          0.49830000       0.20380000       0.38240000
    46  H          0.50170000       0.79620000       0.61760000
    47  C          0.36178000       0.98897000       0.39693000
    48  C          0.63822000       0.01103000       0.60307000
    49  C          0.14728000       0.40433000       0.64463000
    50  C          0.85272000       0.59567000       0.35537000
    51  C          0.03928000       0.51974000       0.77453000
    52  C          0.96072000       0.48026000       0.22547000
    53  C          0.18888000       0.10774000       0.51954000
    54  C          0.81112000       0.89226000       0.48046000
    55  H          0.09460000       0.12330000       0.57160000
    56  H          0.90540000       0.87670000       0.42840000
    57  C          0.23028000       0.01264000       0.47744000
    58  C          0.76972000       0.98736000       0.52256000
    59  H          0.16810000       0.96250000       0.50380000
    60  H          0.83190000       0.03750000       0.49620000
    61  Cl         0.77743000       0.77990900       0.07183100
    62  Cl         0.22257000       0.22009100       0.92816900
    63  Cl         0.02673000       0.91122870       0.73273100
    64  Cl         0.97327000       0.08877130       0.26726900
    65  O          0.65236000       0.00272000       0.11772000
    66  O          0.34764000      -0.00272000       0.88228000
    67  H          0.62750000       0.06540000       0.12750000
    68  H          0.37250000       0.93460000       0.87250000
    69  N          0.62256000       0.19493000       0.08203000
    70  N          0.37744000       0.80507000       0.91797000
    71  N          0.36137000       0.61443000       0.32933000
    72  N          0.63863000       0.38557000       0.67067000
    73  H          0.33060000       0.67590000       0.35260000
    74  H          0.66940000       0.32410000       0.64740000
    75  H          0.35320000       0.56170000       0.36470000
    76  H          0.64680000       0.43830000       0.63530000
    77  O          0.43397000       0.67573000       0.18622000
    78  O          0.56603000       0.32427000       0.81378000
    79  C          0.57267000       0.29743000       0.11703000
    80  C          0.42733000       0.70257000       0.88297000
    81  C          0.42168000       0.60093000       0.23783000
    82  C          0.57832000       0.39907000       0.76217000
    83  C          0.46708000       0.31394000       0.20563000
    84  C          0.53292000       0.68606000       0.79437000
    85  H          0.42890000       0.25880000       0.23790000
    86  H          0.57110000       0.74120000       0.76210000
    87  C          0.69368000       0.17194000      -0.00413000
    88  C          0.30632000       0.82806000       0.00413000
    89  H          0.70600000       0.22470000       0.95320000
    90  H          0.29400000       0.77530000       0.04680000
    91  C          0.84398000       0.04224000       0.87447000
    92  C          0.15602000       0.95776000       0.12553000
    93  H          0.85860000       0.09570000       0.83280000
    94  H          0.14140000       0.90430000       0.16720000
    95  C          0.47328000       0.49393000       0.19983000
    96  C          0.52672000       0.50607000       0.80017000
    97  C          0.41778000       0.41023000       0.24653000
    98  C          0.58222000       0.58977000       0.75347000
    99  H          0.34660000       0.41940000       0.30590000
   100  H          0.65340000       0.58060000       0.69410000
   101  C          0.75337000       0.06584000       0.96597000
   102  C          0.24663000       0.93416000       0.03403000
   103  C          0.63098000       0.38124000       0.07033000
   104  C          0.36902000       0.61876000       0.92967000
   105  H          0.70550000       0.37190000       0.01170000
   106  H          0.29450000       0.62810000       0.98830000
   107  C          0.57758000       0.47694000       0.11143000
   108  C          0.42242000       0.52306000       0.88857000
   109  H          0.61270000       0.53260000       0.07860000
   110  H          0.38730000       0.46740000       0.92140000
   111  C          0.91038000       0.94236000       0.84587000
   112  C          0.08962000       0.05764000       0.15413000
   113  C          0.79968000       0.88266000      -0.00343000
   114  C          0.20032000       0.11734000       0.00343000
   115  C          0.88768000       0.86056000       0.90687000
   116  C          0.11232000       0.13944000       0.09313000
   117  H          0.93170000       0.79200000       0.88680000
   118  H          0.06830000       0.20800000       0.11320000
   119  C          0.73237000       0.98386000       0.03073000
   120  C          0.26763000       0.01614000       0.96927000
