data_TAPDIA02
_symmetry_space_group_name_H-M    'P1'
_symmetry_Int_Tables_number       1
loop_
_symmetry_equiv_pos_site_id
_symmetry_equiv_pos_as_xyz
1 x,y,z
_cell_length_a                   7.10901
_cell_length_b                   10.1672
_cell_length_c                   18.4243
_cell_angle_alpha                90.0
_cell_angle_beta                 91.902
_cell_angle_gamma                90.0
loop_
_atom_site_label
_atom_site_type_symbol
_atom_site_fract_x
_atom_site_fract_y
_atom_site_fract_z
     1  C          0.14722170       0.64744130       0.74552700
     2  C          0.85277830       0.14744130       0.75447300
     3  C          0.85277830       0.35255870       0.25447300
     4  C          0.14722170       0.85255870       0.24552700
     5  C          0.14188180       0.50236130       0.73421700
     6  C          0.85811820       0.00236130       0.76578300
     7  C          0.85811820       0.49763870       0.26578300
     8  C          0.14188180      -0.00236130       0.23421700
     9  C          0.19928160       0.46781120       0.60143600
    10  C          0.80071840       0.96781120       0.89856400
    11  C          0.80071840       0.53218880       0.39856400
    12  C          0.19928160       0.03218880       0.10143600
    13  C          0.16741170       0.42733130       0.67559700
    14  C          0.83258830       0.92733130       0.82440300
    15  C          0.83258830       0.57266870       0.32440300
    16  C          0.16741170       0.07266870       0.17559700
    17  C          0.25730160       0.46116120       0.48630600
    18  C          0.74269840       0.96116120       0.01369400
    19  C          0.74269840       0.53883880       0.51369400
    20  C          0.25730160       0.03883880       0.98630600
    21  C          0.30105160       0.42077130       0.41185600
    22  C          0.69894840       0.92077130       0.08814400
    23  C          0.69894840       0.57922870       0.58814400
    24  C          0.30105160       0.07922870       0.91185600
    25  C          0.29234180       0.51607140       0.35744700
    26  C          0.70765820       0.01607140       0.14255300
    27  C          0.70765820       0.48392860       0.64255300
    28  C          0.29234180       0.98392860       0.85744700
    29  C          0.33423190       0.47919140       0.28736700
    30  C          0.66576810       0.97919140       0.21263300
    31  C          0.66576810       0.52080860       0.71263300
    32  C          0.33423190       0.02080860       0.78736700
    33  C          0.38311180       0.35020150       0.27436700
    34  C          0.61688820       0.85020150       0.22563300
    35  C          0.61688820       0.64979850       0.72563300
    36  C          0.38311180       0.14979850       0.77436700
    37  C          0.38538190       0.26216150       0.33192700
    38  C          0.61461810       0.76216150       0.16807300
    39  C          0.61461810       0.73783850       0.66807300
    40  C          0.38538190       0.23783850       0.83192700
    41  C          0.26893170       0.24274120       0.55657600
    42  C          0.73106830       0.74274120       0.94342400
    43  C          0.73106830       0.75725880       0.44342400
    44  C          0.26893170       0.25725880       0.05657600
    45  C          0.44832180       0.19034130       0.56528700
    46  C          0.55167820       0.69034130       0.93471300
    47  C          0.55167820       0.80965870       0.43471300
    48  C          0.44832180       0.30965870       0.06528700
    49  C          0.46697190       0.05691130       0.57908700
    50  C          0.53302810       0.55691130       0.92091300
    51  C          0.53302810       0.94308870       0.42091300
    52  C          0.46697190       0.44308870       0.07908700
    53  C          0.30752000       0.97817870       0.58405700
    54  C          0.69248000       0.47817870       0.91594300
    55  C          0.69248000       0.02182130       0.41594300
    56  C          0.30752000       0.52182130       0.08405700
    57  C          0.12952000       0.03291130       0.57622700
    58  C          0.87048000       0.53291130       0.92377300
    59  C          0.87048000       0.96708870       0.42377300
    60  C          0.12952000       0.46708870       0.07622700
    61  C          0.10878180       0.16662130       0.56199700
    62  C          0.89121820       0.66662130       0.93800300
    63  C          0.89121820       0.83337870       0.43800300
    64  C          0.10878180       0.33337870       0.06199700
    65  N          0.22002150       0.58465100       0.50290600
    66  N          0.77997850       0.08465100      -0.00290600
    67  N          0.77997850       0.41534900       0.49709400
    68  N          0.22002150       0.91534900       0.00290600
    69  N          0.18343150       0.58796100       0.57539600
    70  N          0.81656850       0.08796100       0.92460400
    71  N          0.81656850       0.41203900       0.42460400
    72  N          0.18343150       0.91203900       0.07539600
    73  N          0.34560160       0.29481110       0.40026600
    74  N          0.65439840       0.79481110       0.09973400
    75  N          0.65439840       0.70518890       0.59973400
    76  N          0.34560160       0.20518890       0.90026600
    77  N          0.24603140       0.38321100       0.54689500
    78  N          0.75396860       0.88321100       0.95310500
    79  N          0.75396860       0.61678900       0.45310500
    80  N          0.24603140       0.11678900       0.04689500
    81  O          0.13188140       0.72997900       0.69003500
    82  O          0.86811860       0.22997900       0.80996500
    83  O          0.86811860       0.27002100       0.30996500
    84  O          0.13188140       0.77002100       0.19003500
    85  O          0.16291150       0.68904100       0.80728500
    86  O          0.83708850       0.18904100       0.69271500
    87  O          0.83708850       0.31095900       0.19271500
    88  O          0.16291150       0.81095900       0.30728500
    89  H          0.14230000       0.68520000       0.64171400
    90  H          0.85770000       0.18520000       0.85828600
    91  H          0.85770000       0.31480000       0.35828600
    92  H          0.14230000       0.81480000       0.14171400
    93  H          0.11720000       0.45541800       0.77979000
    94  H          0.88280000       0.95541800       0.72021000
    95  H          0.88280000       0.54458200       0.22021000
    96  H          0.11720000       0.04458200       0.27979000
    97  H          0.16020000       0.33371800       0.68309000
    98  H          0.83980000       0.83371800       0.81691000
    99  H          0.83980000       0.66628200       0.31691000
   100  H          0.16020000       0.16628200       0.18309000
   101  H          0.25320000       0.60511800       0.36819000
   102  H          0.74680000       0.10511800       0.13181000
   103  H          0.74680000       0.39488200       0.63181000
   104  H          0.25320000       0.89488200       0.86819000
   105  H          0.32520000       0.54411700       0.24839000
   106  H          0.67480000       0.04411700       0.25161000
   107  H          0.67480000       0.45588300       0.75161000
   108  H          0.32520000       0.95588300       0.74839000
   109  H          0.41720000       0.32031800       0.22611000
   110  H          0.58280000       0.82031800       0.27389000
   111  H          0.58280000       0.67968200       0.77389000
   112  H          0.41720000       0.17968200       0.72611000
   113  H          0.41620000       0.16781800       0.32409000
   114  H          0.58380000       0.66781800       0.17591000
   115  H          0.58380000       0.83218200       0.67591000
   116  H          0.41620000       0.33218200       0.82409000
   117  H          0.55520000       0.24751600       0.56099000
   118  H          0.44480000       0.74751600       0.93901000
   119  H          0.44480000       0.75248400       0.43901000
   120  H          0.55520000       0.25248400       0.06099000
   121  H          0.59120000       0.01781700       0.58499000
   122  H          0.40880000       0.51781700       0.91501000
   123  H          0.40880000       0.98218300       0.41501000
   124  H          0.59120000       0.48218300       0.08499000
   125  H          0.32320000       0.88348300       0.59329000
   126  H          0.67680000       0.38348300       0.90671000
   127  H          0.67680000       0.11651700       0.40671000
   128  H          0.32320000       0.61651700       0.09329000
   129  H          0.01620000       0.97728200       0.57949000
   130  H         -0.01620000       0.47728200       0.92051000
   131  H         -0.01620000       0.02271800       0.42051000
   132  H          0.01620000       0.52271800       0.07949000
   133  H         -0.01520000       0.20591700       0.55629000
   134  H          0.01520000       0.70591700       0.94371000
   135  H          0.01520000       0.79408300       0.44371000
   136  H         -0.01520000       0.29408300       0.05629000
