data_TAPDIA
_symmetry_space_group_name_H-M    'P1'
_symmetry_Int_Tables_number       1
loop_
_symmetry_equiv_pos_site_id
_symmetry_equiv_pos_as_xyz
1 x,y,z
_cell_length_a                   10.0963
_cell_length_b                   7.9992
_cell_length_c                   17.2374
_cell_angle_alpha                90.0
_cell_angle_beta                 105.073
_cell_angle_gamma                90.0
loop_
_atom_site_label
_atom_site_type_symbol
_atom_site_fract_x
_atom_site_fract_y
_atom_site_fract_z
     1  C          0.14687190       0.58832000       0.53116110
     2  C          0.35312810       0.08832000       0.96883890
     3  C          0.85312810       0.41168000       0.46883890
     4  C          0.64687190       0.91168000       0.03116110
     5  C          0.14982000       0.62442000       0.44695110
     6  C          0.35018000       0.12442000       0.05304890
     7  C          0.85018000       0.37558000       0.55304890
     8  C          0.64982000       0.87558000       0.94695110
     9  C          0.33199180       0.43802000       0.41695100
    10  C          0.16800820       0.93802000       0.08304900
    11  C          0.66800820       0.56198000       0.58304900
    12  C          0.83199180       0.06198000       0.91695100
    13  C          0.22516190       0.56372000       0.39964110
    14  C          0.27483810       0.06372000       0.10035890
    15  C          0.77483810       0.43628000       0.60035890
    16  C          0.72516190       0.93628000       0.89964110
    17  C          0.48655180       0.25972000       0.40100100
    18  C          0.01344820       0.75972000       0.09899900
    19  C          0.51344820       0.74028000       0.59899900
    20  C         -0.01344820       0.24028000       0.90100100
    21  C          0.57108180       0.14882000       0.36477100
    22  C          0.92891820       0.64882000       0.13522900
    23  C          0.42891820       0.85118000       0.63522900
    24  C          0.07108180       0.35118000       0.86477100
    25  C          0.67422000       0.05462000       0.41497120
    26  C          0.82578000       0.55462000       0.08502880
    27  C          0.32578000       0.94538000       0.58502880
    28  C          0.17422000       0.44538000       0.91497120
    29  C          0.74752000       0.94408000       0.38078120
    30  C          0.75248000       0.44408000       0.11921880
    31  C          0.25248000       0.05592000       0.61921880
    32  C          0.24752000       0.55592000       0.88078120
    33  C          0.71562000       0.93048000       0.29797120
    34  C          0.78438000       0.43048000       0.20202880
    35  C          0.28438000       0.06952000       0.70202880
    36  C          0.21562000       0.56952000       0.79797120
    37  C          0.61154190       0.02912000       0.25270120
    38  C          0.88845810       0.52912000       0.24729880
    39  C          0.38845810       0.97088000       0.74729880
    40  C          0.11154190       0.47088000       0.75270120
    41  C          0.38006180       0.44672000       0.28121100
    42  C          0.11993820       0.94672000       0.21878900
    43  C          0.61993820       0.55328000       0.71878900
    44  C          0.88006180       0.05328000       0.78121100
    45  C          0.48222000       0.54512000       0.26454110
    46  C          0.01778000       0.04512000       0.23545890
    47  C          0.51778000       0.45488000       0.73545890
    48  C          0.98222000       0.95488000       0.76454110
    49  C          0.46422000       0.60862000       0.18756110
    50  C          0.03578000       0.10862000       0.31243890
    51  C          0.53578000       0.39138000       0.81243890
    52  C          0.96422000       0.89138000       0.68756110
    53  C          0.34532000       0.57262000       0.12876110
    54  C          0.15468000       0.07262000       0.37123890
    55  C          0.65468000       0.42738000       0.87123890
    56  C          0.84532000       0.92738000       0.62876110
    57  C          0.24302000       0.47472000       0.14638110
    58  C          0.25698000       0.97472000       0.35361890
    59  C          0.75698000       0.52528000       0.85361890
    60  C          0.74302000       0.02528000       0.64638110
    61  C          0.26042000       0.41182000       0.22368110
    62  C          0.23958000       0.91182000       0.27631890
    63  C          0.73958000       0.58818000       0.77631890
    64  C          0.76042000       0.08818000       0.72368110
    65  N          0.47763150       0.24484180       0.47581800
    66  N          0.02236850       0.74484180       0.02418200
    67  N          0.52236850       0.75515820       0.52418200
    68  N          0.97763150       0.25515820       0.97581800
    69  N          0.38003150       0.35804190       0.48517900
    70  N          0.11996850       0.85804190       0.01482100
    71  N          0.61996850       0.64195810       0.51482100
    72  N          0.88003150       0.14195810       0.98517900
    73  N          0.53854160       0.13779190       0.28435900
    74  N          0.96145840       0.63779190       0.21564100
    75  N          0.46145840       0.86220810       0.71564100
    76  N          0.03854160       0.36220810       0.78435900
    77  N          0.39809150       0.38122170       0.36147800
    78  N          0.10190850       0.88122170       0.13852200
    79  N          0.60190850       0.61877830       0.63852200
    80  N          0.89809150       0.11877830       0.86147800
    81  O          0.23350140       0.47873160       0.57512700
    82  O          0.26649860       0.97873160       0.92487300
    83  O          0.76649860       0.52126840       0.42487300
    84  O          0.73350140       0.02126840       0.07512700
    85  O          0.06497130       0.66189160       0.55980700
    86  O          0.43502870       0.16189160       0.94019300
    87  O          0.93502870       0.33810840       0.44019300
    88  O          0.56497130       0.83810840       0.05980700
    89  H          0.30520000       0.41730000       0.54851400
    90  H          0.19480000       0.91730000       0.95148600
    91  H          0.69480000       0.58270000       0.45148600
    92  H          0.80520000       0.08270000       0.04851400
    93  H          0.07820000       0.70620000       0.42371100
    94  H          0.42180000       0.20620000       0.07628900
    95  H          0.92180000       0.29380000       0.57628900
    96  H          0.57820000       0.79380000       0.92371100
    97  H          0.20571900       0.60420000       0.34471100
    98  H          0.29428100       0.10420000       0.15528900
    99  H          0.79428100       0.39580000       0.65528900
   100  H          0.70571900       0.89580000       0.84471100
   101  H          0.68961800       0.07120000       0.47301100
   102  H          0.81038200       0.57120000       0.02698900
   103  H          0.31038200       0.92880000       0.52698900
   104  H          0.18961800       0.42880000       0.97301100
   105  H          0.82351900       0.87580000       0.41641100
   106  H          0.67648100       0.37580000       0.08358900
   107  H          0.17648100       0.12420000       0.58358900
   108  H          0.32351900       0.62420000       0.91641100
   109  H          0.76951900       0.85280000       0.26871100
   110  H          0.73048100       0.35280000       0.23128900
   111  H          0.23048100       0.14720000       0.73128900
   112  H          0.26951900       0.64720000       0.76871100
   113  H          0.58921800       0.02320000       0.19371100
   114  H          0.91078200       0.52320000       0.30628900
   115  H          0.41078200       0.97680000       0.80628900
   116  H          0.08921800       0.47680000       0.69371100
   117  H          0.56571900       0.56120000       0.30541100
   118  H          0.93428100       0.06120000       0.19458900
   119  H          0.43428100       0.43880000       0.69458900
   120  H          0.06571900       0.93880000       0.80541100
   121  H          0.53361900       0.68020000       0.17031100
   122  H          0.96638100       0.18020000       0.32968900
   123  H          0.46638100       0.31980000       0.82968900
   124  H          0.03361900       0.81980000       0.67031100
   125  H          0.33551600       0.61620000       0.07431000
   126  H          0.16448400       0.11620000       0.42569000
   127  H          0.66448400       0.38380000       0.92569000
   128  H          0.83551600       0.88380000       0.57431000
   129  H          0.15811800       0.44420000       0.10311000
   130  H          0.34188200       0.94420000       0.39689000
   131  H          0.84188200       0.55580000       0.89689000
   132  H          0.65811800       0.05580000       0.60311000
   133  H          0.19381700       0.34220000       0.23961000
   134  H          0.30618300       0.84220000       0.26039000
   135  H          0.80618300       0.65780000       0.76039000
   136  H          0.69381700       0.15780000       0.73961000
