data_TAPDIA01
_symmetry_space_group_name_H-M    'P1'
_symmetry_Int_Tables_number       1
loop_
_symmetry_equiv_pos_site_id
_symmetry_equiv_pos_as_xyz
1 x,y,z
_cell_length_a                   15.1012
_cell_length_b                   8.0781
_cell_length_c                   22.0893
_cell_angle_alpha                90.0
_cell_angle_beta                 91.831
_cell_angle_gamma                90.0
loop_
_atom_site_label
_atom_site_type_symbol
_atom_site_fract_x
_atom_site_fract_y
_atom_site_fract_z
     1  C          0.12824800       0.30471160       0.42004500
     2  C          0.87175200       0.30471160       0.07995500
     3  C          0.62824800       0.80471160       0.42004500
     4  C          0.37175200       0.80471160       0.07995500
     5  C          0.87175200       0.69528840       0.57995500
     6  C          0.12824800       0.69528840       0.92004500
     7  C          0.37175200       0.19528840       0.57995500
     8  C          0.62824800       0.19528840       0.92004500
     9  C          0.09779800       0.37253170       0.47879500
    10  C          0.90220200       0.37253170       0.02120500
    11  C          0.59779800       0.87253170       0.47879500
    12  C          0.40220200       0.87253170       0.02120500
    13  C          0.90220200       0.62746830       0.52120500
    14  C          0.09779800       0.62746830       0.97879500
    15  C          0.40220200       0.12746830       0.52120500
    16  C          0.59779800       0.12746830       0.97879500
    17  C          0.22797700       0.52624160       0.52629500
    18  C          0.77202300       0.52624160       0.97370500
    19  C          0.72797700       0.02624160       0.52629500
    20  C          0.27202300       0.02624160       0.97370500
    21  C          0.77202300       0.47375840       0.47370500
    22  C          0.22797700       0.47375840       0.02629500
    23  C          0.27202300       0.97375840       0.47370500
    24  C          0.72797700       0.97375840       0.02629500
    25  C          0.13762700       0.46280170       0.52260500
    26  C          0.86237300       0.46280170       0.97739500
    27  C          0.63762700       0.96280170       0.52260500
    28  C          0.36237300       0.96280170       0.97739500
    29  C          0.86237300       0.53719830       0.47739500
    30  C          0.13762700       0.53719830       0.02260500
    31  C          0.36237300       0.03719830       0.47739500
    32  C          0.63762700       0.03719830       0.02260500
    33  C          0.35347700       0.62831160       0.56016500
    34  C          0.64652300       0.62831160       0.93983500
    35  C          0.85347700       0.12831160       0.56016500
    36  C          0.14652300       0.12831160       0.93983500
    37  C          0.64652300       0.37168840       0.43983500
    38  C          0.35347700       0.37168840       0.06016500
    39  C          0.14652300       0.87168840       0.43983500
    40  C          0.85347700       0.87168840       0.06016500
    41  C          0.42499700       0.69804160       0.59957500
    42  C          0.57500300       0.69804160       0.90042500
    43  C          0.92499700       0.19804160       0.59957500
    44  C          0.07500300       0.19804160       0.90042500
    45  C          0.57500300       0.30195840       0.40042500
    46  C          0.42499700       0.30195840       0.09957500
    47  C          0.07500300       0.80195840       0.40042500
    48  C          0.92499700       0.80195840       0.09957500
    49  C          0.50818800       0.62360160       0.59915600
    50  C          0.49181200       0.62360160       0.90084400
    51  C          0.00818800       0.12360160       0.59915600
    52  C         -0.00818800       0.12360160       0.90084400
    53  C          0.49181200       0.37639840       0.40084400
    54  C          0.50818800       0.37639840       0.09915600
    55  C         -0.00818800       0.87639840       0.40084400
    56  C          0.00818800       0.87639840       0.09915600
    57  C          0.57468800       0.68767170       0.63716600
    58  C          0.42531200       0.68767170       0.86283400
    59  C          0.07468800       0.18767170       0.63716600
    60  C          0.92531200       0.18767170       0.86283400
    61  C          0.42531200       0.31232830       0.36283400
    62  C          0.57468800       0.31232830       0.13716600
    63  C          0.92531200       0.81232830       0.36283400
    64  C          0.07468800       0.81232830       0.13716600
    65  C          0.55583800       0.82240170       0.67305600
    66  C          0.44416200       0.82240170       0.82694400
    67  C          0.05583800       0.32240170       0.67305600
    68  C          0.94416200       0.32240170       0.82694400
    69  C          0.44416200       0.17759830       0.32694400
    70  C          0.55583800       0.17759830       0.17305600
    71  C          0.94416200       0.67759830       0.32694400
    72  C          0.05583800       0.67759830       0.17305600
    73  C          0.47135800       0.89008170       0.66920600
    74  C          0.52864200       0.89008170       0.83079400
    75  C          0.97135800       0.39008170       0.66920600
    76  C          0.02864200       0.39008170       0.83079400
    77  C          0.52864200       0.10991830       0.33079400
    78  C          0.47135800       0.10991830       0.16920600
    79  C          0.02864200       0.60991830       0.33079400
    80  C          0.97135800       0.60991830       0.16920600
    81  C          0.22786700       0.63476160       0.63355500
    82  C          0.77213300       0.63476160       0.86644500
    83  C          0.72786700       0.13476160       0.63355500
    84  C          0.27213300       0.13476160       0.86644500
    85  C          0.77213300       0.36523840       0.36644500
    86  C          0.22786700       0.36523840       0.13355500
    87  C          0.27213300       0.86523840       0.36644500
    88  C          0.72786700       0.86523840       0.13355500
    89  C          0.26699800       0.56471170       0.68503500
    90  C          0.73300200       0.56471170       0.81496500
    91  C          0.76699800       0.06471170       0.68503500
    92  C          0.23300200       0.06471170       0.81496500
    93  C          0.73300200       0.43528830       0.31496500
    94  C          0.26699800       0.43528830       0.18503500
    95  C          0.23300200       0.93528830       0.31496500
    96  C          0.76699800       0.93528830       0.18503500
    97  C          0.23039800       0.59769170       0.74066500
    98  C          0.76960200       0.59769170       0.75933500
    99  C          0.73039800       0.09769170       0.74066500
   100  C          0.26960200       0.09769170       0.75933500
   101  C          0.76960200       0.40230830       0.25933500
   102  C          0.23039800       0.40230830       0.24066500
   103  C          0.26960200       0.90230830       0.25933500
   104  C          0.73039800       0.90230830       0.24066500
   105  C          0.15556800       0.69732170       0.74410600
   106  C          0.84443200       0.69732170       0.75589400
   107  C          0.65556800       0.19732170       0.74410600
   108  C          0.34443200       0.19732170       0.75589400
   109  C          0.84443200       0.30267830       0.25589400
   110  C          0.15556800       0.30267830       0.24410600
   111  C          0.34443200       0.80267830       0.25589400
   112  C          0.65556800       0.80267830       0.24410600
   113  C          0.11621800       0.76267170       0.69180600
   114  C          0.88378200       0.76267170       0.80819400
   115  C          0.61621800       0.26267170       0.69180600
   116  C          0.38378200       0.26267170       0.80819400
   117  C          0.88378200       0.23732830       0.30819400
   118  C          0.11621800       0.23732830       0.19180600
   119  C          0.38378200       0.73732830       0.30819400
   120  C          0.61621800       0.73732830       0.19180600
   121  C          0.15269800       0.73326160       0.63586500
   122  C          0.84730200       0.73326160       0.86413500
   123  C          0.65269800       0.23326160       0.63586500
   124  C          0.34730200       0.23326160       0.86413500
   125  C          0.84730200       0.26673840       0.36413500
   126  C          0.15269800       0.26673840       0.13586500
   127  C          0.34730200       0.76673840       0.36413500
   128  C          0.65269800       0.76673840       0.13586500
   129  O          0.21144500       0.32191120       0.40374400
   130  O          0.78855500       0.32191120       0.09625600
   131  O          0.71144500       0.82191120       0.40374400
   132  O          0.28855500       0.82191120       0.09625600
   133  O          0.78855500       0.67808880       0.59625600
   134  O          0.21144500       0.67808880       0.90374400
   135  O          0.28855500       0.17808880       0.59625600
   136  O          0.71144500       0.17808880       0.90374400
   137  O          0.07539600       0.22831120       0.38800400
   138  O          0.92460400       0.22831120       0.11199600
   139  O          0.57539600       0.72831120       0.38800400
   140  O          0.42460400       0.72831120       0.11199600
   141  O          0.92460400       0.77168880       0.61199600
   142  O          0.07539600       0.77168880       0.88800400
   143  O          0.42460400       0.27168880       0.61199600
   144  O          0.57539600       0.27168880       0.88800400
   145  N          0.36631600       0.57560140       0.50504400
   146  N          0.63368400       0.57560140      -0.00504400
   147  N          0.86631600       0.07560140       0.50504400
   148  N          0.13368400       0.07560140      -0.00504400
   149  N          0.63368400       0.42439860       0.49495600
   150  N          0.36631600       0.42439860       0.00504400
   151  N          0.13368400       0.92439860       0.49495600
   152  N          0.86631600       0.92439860       0.00504400
   153  N          0.28673600       0.51108140       0.48378400
   154  N          0.71326400       0.51108140       0.01621600
   155  N          0.78673600       0.01108140       0.48378400
   156  N          0.21326400       0.01108140       0.01621600
   157  N          0.71326400       0.48891860       0.51621600
   158  N          0.28673600       0.48891860       0.98378400
   159  N          0.21326400      -0.01108140       0.51621600
   160  N          0.78673600      -0.01108140       0.98378400
   161  N          0.40528600       0.83030130       0.63344500
   162  N          0.59471400       0.83030130       0.86655500
   163  N          0.90528600       0.33030130       0.63344500
   164  N          0.09471400       0.33030130       0.86655500
   165  N          0.59471400       0.16969870       0.36655500
   166  N          0.40528600       0.16969870       0.13344500
   167  N          0.09471400       0.66969870       0.36655500
   168  N          0.90528600       0.66969870       0.13344500
   169  N          0.26698600       0.60261130       0.57567400
   170  N          0.73301400       0.60261130       0.92432600
   171  N          0.76698600       0.10261130       0.57567400
   172  N          0.23301400       0.10261130       0.92432600
   173  N          0.73301400       0.39738870       0.42432600
   174  N          0.26698600       0.39738870       0.07567400
   175  N          0.23301400       0.89738870       0.42432600
   176  N          0.76698600       0.89738870       0.07567400
   177  H          0.24761200       0.39430000       0.43389000
   178  H          0.75238800       0.39430000       0.06611000
   179  H          0.74761200       0.89430000       0.43389000
   180  H          0.25238800       0.89430000       0.06611000
   181  H          0.75238800       0.60570000       0.56611000
   182  H          0.24761200       0.60570000       0.93389000
   183  H          0.25238800       0.10570000       0.56611000
   184  H          0.74761200       0.10570000       0.93389000
   185  H          0.03648000       0.33761700       0.48506000
   186  H          0.96352000       0.33761700       0.01494000
   187  H          0.53648000       0.83761700       0.48506000
   188  H          0.46352000       0.83761700       0.01494000
   189  H          0.96352000       0.66238300       0.51494000
   190  H          0.03648000       0.66238300       0.98506000
   191  H          0.46352000       0.16238300       0.51494000
   192  H          0.53648000       0.16238300       0.98506000
   193  H          0.10199000       0.48651900       0.55856000
   194  H          0.89801000       0.48651900       0.94144000
   195  H          0.60199000      -0.01348100       0.55856000
   196  H          0.39801000      -0.01348100       0.94144000
   197  H          0.89801000       0.51348100       0.44144000
   198  H          0.10199000       0.51348100       0.05856000
   199  H          0.39801000       0.01348100       0.44144000
   200  H          0.60199000       0.01348100       0.05856000
   201  H          0.51848000       0.52681800       0.57346000
   202  H          0.48152000       0.52681800       0.92654000
   203  H          0.01848000       0.02681800       0.57346000
   204  H          0.98152000       0.02681800       0.92654000
   205  H          0.48152000       0.47318200       0.42654000
   206  H          0.51848000       0.47318200       0.07346000
   207  H          0.98152000       0.97318200       0.42654000
   208  H          0.01848000       0.97318200       0.07346000
   209  H          0.63449000       0.63821700       0.63866000
   210  H          0.36551000       0.63821700       0.86134000
   211  H          0.13449000       0.13821700       0.63866000
   212  H          0.86551000       0.13821700       0.86134000
   213  H          0.36551000       0.36178300       0.36134000
   214  H          0.63449000       0.36178300       0.13866000
   215  H          0.86551000       0.86178300       0.36134000
   216  H          0.13449000       0.86178300       0.13866000
   217  H          0.60018000       0.87031800       0.70016000
   218  H          0.39982000       0.87031800       0.79984000
   219  H          0.10018000       0.37031800       0.70016000
   220  H          0.89982000       0.37031800       0.79984000
   221  H          0.39982000       0.12968200       0.29984000
   222  H          0.60018000       0.12968200       0.20016000
   223  H          0.89982000       0.62968200       0.29984000
   224  H          0.10018000       0.62968200       0.20016000
   225  H          0.45768000      -0.01188200       0.69196000
   226  H          0.54232000      -0.01188200       0.80804000
   227  H          0.95768000       0.48811800       0.69196000
   228  H          0.04232000       0.48811800       0.80804000
   229  H          0.54232000       0.01188200       0.30804000
   230  H          0.45768000       0.01188200       0.19196000
   231  H          0.04232000       0.51188200       0.30804000
   232  H          0.95768000       0.51188200       0.19196000
   233  H          0.31829000       0.49591800       0.68196000
   234  H          0.68171000       0.49591800       0.81804000
   235  H          0.81829000      -0.00408200       0.68196000
   236  H          0.18171000      -0.00408200       0.81804000
   237  H          0.68171000       0.50408200       0.31804000
   238  H          0.31829000       0.50408200       0.18196000
   239  H          0.18171000       0.00408200       0.31804000
   240  H          0.81829000       0.00408200       0.18196000
   241  H          0.25808000       0.54861800       0.77866000
   242  H          0.74192000       0.54861800       0.72134000
   243  H          0.75808000       0.04861800       0.77866000
   244  H          0.24192000       0.04861800       0.72134000
   245  H          0.74192000       0.45138200       0.22134000
   246  H          0.25808000       0.45138200       0.27866000
   247  H          0.24192000       0.95138200       0.22134000
   248  H          0.75808000       0.95138200       0.27866000
   249  H          0.13198000       0.72081800       0.78326000
   250  H          0.86802000       0.72081800       0.71674000
   251  H          0.63198000       0.22081800       0.78326000
   252  H          0.36802000       0.22081800       0.71674000
   253  H          0.86802000       0.27918200       0.21674000
   254  H          0.13198000       0.27918200       0.28326000
   255  H          0.36802000       0.77918200       0.21674000
   256  H          0.63198000       0.77918200       0.28326000
   257  H          0.06408000       0.83031800       0.69436000
   258  H          0.93592000       0.83031800       0.80564000
   259  H          0.56408000       0.33031800       0.69436000
   260  H          0.43592000       0.33031800       0.80564000
   261  H          0.93592000       0.16968200       0.30564000
   262  H          0.06408000       0.16968200       0.19436000
   263  H          0.43592000       0.66968200       0.30564000
   264  H          0.56408000       0.66968200       0.19436000
   265  H          0.12488000       0.78341800       0.59846000
   266  H          0.87512000       0.78341800       0.90154000
   267  H          0.62488000       0.28341800       0.59846000
   268  H          0.37512000       0.28341800       0.90154000
   269  H          0.87512000       0.21658200       0.40154000
   270  H          0.12488000       0.21658200       0.09846000
   271  H          0.37512000       0.71658200       0.40154000
   272  H          0.62488000       0.71658200       0.09846000
