data_TAPSAF
_symmetry_space_group_name_H-M    'P1'
_symmetry_Int_Tables_number       1
loop_
_symmetry_equiv_pos_site_id
_symmetry_equiv_pos_as_xyz
1 x,y,z
_cell_length_a                   27.51612
_cell_length_b                   14.9047
_cell_length_c                   5.7243
_cell_angle_alpha                90.0
_cell_angle_beta                 90.0
_cell_angle_gamma                90.0
loop_
_atom_site_label
_atom_site_type_symbol
_atom_site_fract_x
_atom_site_fract_y
_atom_site_fract_z
     1  O          0.44257120       0.59052000       0.11006000
     2  O          0.05742880       0.40948000       0.61006000
     3  O          0.94257120       0.90948000       0.88994000
     4  O          0.55742880       0.09052000       0.38994000
     5  O          0.55742880       0.40948000       0.88994000
     6  O          0.94257120       0.59052000       0.38994000
     7  O          0.05742880       0.09052000       0.11006000
     8  O          0.44257120       0.90948000       0.61006000
     9  O          0.62937120       0.60902000       0.77085000
    10  O          0.87062880       0.39098000       0.27085000
    11  O          0.12937120       0.89098000       0.22915000
    12  O          0.37062880       0.10902000       0.72915000
    13  O          0.37062880       0.39098000       0.22915000
    14  O          0.12937120       0.60902000       0.72915000
    15  O          0.87062880       0.10902000       0.77085000
    16  O          0.62937120       0.89098000       0.27085000
    17  O          0.85420140       0.60092000       0.57486000
    18  O          0.64579860       0.39908000       0.07486000
    19  O          0.35420140       0.89908000       0.42514000
    20  O          0.14579860       0.10092000       0.92514000
    21  O          0.14579860       0.39908000       0.42514000
    22  O          0.35420140       0.60092000       0.92514000
    23  O          0.64579860       0.10092000       0.57486000
    24  O          0.85420140       0.89908000       0.07486000
    25  O          0.82995130       0.67632000       0.25907000
    26  O          0.67004870       0.32368000       0.75907000
    27  O          0.32995130       0.82368000       0.74093000
    28  O          0.17004870       0.17632000       0.24093000
    29  O          0.17004870       0.32368000       0.74093000
    30  O          0.32995130       0.67632000       0.24093000
    31  O          0.67004870       0.17632000       0.25907000
    32  O          0.82995130       0.82368000       0.75907000
    33  C          0.77030170       0.63313000       0.53339000
    34  C          0.72969830       0.36687000       0.03339000
    35  C          0.27030170       0.86687000       0.46661000
    36  C          0.22969830       0.13313000       0.96661000
    37  C          0.22969830       0.36687000       0.46661000
    38  C          0.27030170       0.63313000       0.96661000
    39  C          0.72969830       0.13313000       0.53339000
    40  C          0.77030170       0.86687000       0.03339000
    41  O          0.41671140       0.67052000       0.41616000
    42  O          0.08328860       0.32948000       0.91616000
    43  O          0.91671140       0.82948000       0.58384000
    44  O          0.58328860       0.17052000       0.08384000
    45  O          0.58328860       0.32948000       0.58384000
    46  O          0.91671140       0.67052000       0.08384000
    47  O          0.08328860       0.17052000       0.41616000
    48  O          0.41671140       0.82948000       0.91616000
    49  C          0.53602180       0.57643000       0.31958000
    50  C          0.96397820       0.42357000       0.81958000
    51  C          0.03602180       0.92357000       0.68042000
    52  C          0.46397820       0.07643000       0.18042000
    53  C          0.46397820       0.42357000       0.68042000
    54  C          0.03602180       0.57643000       0.18042000
    55  C          0.96397820       0.07643000       0.31958000
    56  C          0.53602180       0.92357000       0.81958000
    57  H          0.53150000       0.54770000       0.17690000
    58  H          0.96850000       0.45230000       0.67690000
    59  H          0.03150000       0.95230000       0.82310000
    60  H          0.46850000       0.04770000       0.32310000
    61  H          0.46850000       0.45230000       0.82310000
    62  H          0.03150000       0.54770000       0.32310000
    63  H          0.96850000       0.04770000       0.17690000
    64  H          0.53150000       0.95230000       0.67690000
    65  C          0.67490160       0.61703000       0.67579000
    66  C          0.82509840       0.38297000       0.17579000
    67  C          0.17490160       0.88297000       0.32421000
    68  C          0.32509840       0.11703000       0.82421000
    69  C          0.32509840       0.38297000       0.32421000
    70  C          0.17490160       0.61703000       0.82421000
    71  C          0.82509840       0.11703000       0.67579000
    72  C          0.67490160       0.88297000       0.17579000
    73  C          0.58138170       0.57203000       0.42729000
    74  C          0.91861830       0.42797000       0.92729000
    75  C          0.08138170       0.92797000       0.57271000
    76  C          0.41861830       0.07203000       0.07271000
    77  C          0.41861830       0.42797000       0.57271000
    78  C          0.08138170       0.57203000       0.07271000
    79  C          0.91861830       0.07203000       0.42729000
    80  C          0.58138170       0.92797000       0.92729000
    81  H          0.60680000       0.54030000       0.35930000
    82  H          0.89320000       0.45970000       0.85930000
    83  H          0.10680000       0.95970000       0.64070000
    84  H          0.39320000       0.04030000       0.14070000
    85  H          0.39320000       0.45970000       0.64070000
    86  H          0.10680000       0.54030000       0.14070000
    87  H          0.89320000       0.04030000       0.35930000
    88  H          0.60680000       0.95970000       0.85930000
    89  C          0.54933170       0.66133000       0.74108000
    90  C          0.95066830       0.33867000       0.24108000
    91  C          0.04933170       0.83867000       0.25892000
    92  C          0.45066830       0.16133000       0.75892000
    93  C          0.45066830       0.33867000       0.25892000
    94  C          0.04933170       0.66133000       0.75892000
    95  C          0.95066830       0.16133000       0.74108000
    96  C          0.54933170       0.83867000       0.24108000
    97  H          0.55380000       0.69050000       0.88300000
    98  H          0.94620000       0.30950000       0.38300000
    99  H          0.05380000       0.80950000       0.11700000
   100  H          0.44620000       0.19050000       0.61700000
   101  H          0.44620000       0.30950000       0.11700000
   102  H          0.05380000       0.69050000       0.61700000
   103  H          0.94620000       0.19050000       0.88300000
   104  H          0.55380000       0.80950000       0.38300000
   105  C          0.49764170       0.62233000       0.41909000
   106  C          0.00235830       0.37767000       0.91909000
   107  C         -0.00235830       0.87767000       0.58091000
   108  C          0.50235830       0.12233000       0.08091000
   109  C          0.50235830       0.37767000       0.58091000
   110  C         -0.00235830       0.62233000       0.08091000
   111  C          0.00235830       0.12233000       0.41909000
   112  C          0.49764170       0.87767000       0.91909000
   113  C          0.50460170       0.66293000       0.63219000
   114  C         -0.00460170       0.33707000       0.13219000
   115  C          0.00460170       0.83707000       0.36781000
   116  C          0.49539830       0.16293000       0.86781000
   117  C          0.49539830       0.33707000       0.36781000
   118  C          0.00460170       0.66293000       0.86781000
   119  C         -0.00460170       0.16293000       0.63219000
   120  C          0.50460170       0.83707000       0.13219000
   121  H          0.47870000       0.69190000       0.70420000
   122  H          0.02130000       0.30810000       0.20420000
   123  H          0.97870000       0.80810000       0.29580000
   124  H          0.52130000       0.19190000       0.79580000
   125  H          0.52130000       0.30810000       0.29580000
   126  H          0.97870000       0.69190000       0.79580000
   127  H          0.02130000       0.19190000       0.70420000
   128  H          0.47870000       0.80810000       0.20420000
   129  C          0.71190170       0.58513000       0.81518000
   130  C          0.78809830       0.41487000       0.31518000
   131  C          0.21190170       0.91487000       0.18482000
   132  C          0.28809830       0.08513000       0.68482000
   133  C          0.28809830       0.41487000       0.18482000
   134  C          0.21190170       0.58513000       0.68482000
   135  C          0.78809830       0.08513000       0.81518000
   136  C          0.71190170       0.91487000       0.31518000
   137  H          0.70460000       0.55840000       0.95770000
   138  H          0.79540000       0.44160000       0.45770000
   139  H          0.20460000       0.94160000       0.04230000
   140  H          0.29540000       0.05840000       0.54230000
   141  H          0.29540000       0.44160000       0.04230000
   142  H          0.20460000       0.55840000       0.54230000
   143  H          0.79540000       0.05840000       0.95770000
   144  H          0.70460000       0.94160000       0.45770000
   145  C          0.75937170       0.59253000       0.74469000
   146  C          0.74062830       0.40747000       0.24469000
   147  C          0.25937170       0.90747000       0.25531000
   148  C          0.24062830       0.09253000       0.75531000
   149  C          0.24062830       0.40747000       0.25531000
   150  C          0.25937170       0.59253000       0.75531000
   151  C          0.74062830       0.09253000       0.74469000
   152  C          0.75937170       0.90747000       0.24469000
   153  H          0.78420000       0.57020000       0.83850000
   154  H          0.71580000       0.42980000       0.33850000
   155  H          0.28420000       0.92980000       0.16150000
   156  H          0.21580000       0.07020000       0.66150000
   157  H          0.21580000       0.42980000       0.16150000
   158  H          0.28420000       0.57020000       0.66150000
   159  H          0.71580000       0.07020000       0.83850000
   160  H          0.78420000       0.92980000       0.33850000
   161  C          0.68532160       0.65843000       0.46739000
   162  C          0.81467840       0.34157000       0.96739000
   163  C          0.18532160       0.84157000       0.53261000
   164  C          0.31467840       0.15843000       0.03261000
   165  C          0.31467840       0.34157000       0.53261000
   166  C          0.18532160       0.65843000       0.03261000
   167  C          0.81467840       0.15843000       0.46739000
   168  C          0.68532160       0.84157000       0.96739000
   169  H          0.66050000       0.68090000       0.37410000
   170  H          0.83950000       0.31910000       0.87410000
   171  H          0.16050000       0.81910000       0.62590000
   172  H          0.33950000       0.18090000       0.12590000
   173  H          0.33950000       0.31910000       0.62590000
   174  H          0.16050000       0.68090000       0.12590000
   175  H          0.83950000       0.18090000       0.37410000
   176  H          0.66050000       0.81910000       0.87410000
   177  C          0.44962180       0.62643000       0.30511000
   178  C          0.05037820       0.37357000       0.80511000
   179  C          0.94962180       0.87357000       0.69489000
   180  C          0.55037820       0.12643000       0.19489000
   181  C          0.55037820       0.37357000       0.69489000
   182  C          0.94962180       0.62643000       0.19489000
   183  C          0.05037820       0.12643000       0.30511000
   184  C          0.44962180       0.87357000       0.80511000
   185  C          0.58746170       0.61593000       0.63739000
   186  C          0.91253830       0.38407000       0.13739000
   187  C          0.08746170       0.88407000       0.36261000
   188  C          0.41253830       0.11593000       0.86261000
   189  C          0.41253830       0.38407000       0.36261000
   190  C          0.08746170       0.61593000       0.86261000
   191  C          0.91253830       0.11593000       0.63739000
   192  C          0.58746170       0.88407000       0.13739000
   193  C          0.73321170       0.66593000       0.39818000
   194  C          0.76678830       0.33407000       0.89818000
   195  C          0.23321170       0.83407000       0.60182000
   196  C          0.26678830       0.16593000       0.10182000
   197  C          0.26678830       0.33407000       0.60182000
   198  C          0.23321170       0.66593000       0.10182000
   199  C          0.76678830       0.16593000       0.39818000
   200  C          0.73321170       0.83407000       0.89818000
   201  H          0.74050000       0.69390000       0.25700000
   202  H          0.75950000       0.30610000       0.75700000
   203  H          0.24050000       0.80610000       0.74300000
   204  H          0.25950000       0.19390000       0.24300000
   205  H          0.25950000       0.30610000       0.74300000
   206  H          0.24050000       0.69390000       0.24300000
   207  H          0.75950000       0.19390000       0.25700000
   208  H          0.74050000       0.80610000       0.75700000
   209  C          0.82105190       0.63793000       0.44981100
   210  C          0.67894810       0.36207000       0.94981100
   211  C          0.32105190       0.86207000       0.55018900
   212  C          0.17894810       0.13793000       0.05018900
   213  C          0.17894810       0.36207000       0.55018900
   214  C          0.32105190       0.63793000       0.05018900
   215  C          0.67894810       0.13793000       0.44981100
   216  C          0.82105190       0.86207000       0.94981100
   217  H          0.38030000       0.67130000       0.29610000
   218  H          0.11970000       0.32870000       0.79610000
   219  H          0.88030000       0.82870000       0.70390000
   220  H          0.61970000       0.17130000       0.20390000
   221  H          0.61970000       0.32870000       0.70390000
   222  H          0.88030000       0.67130000       0.20390000
   223  H          0.11970000       0.17130000       0.29610000
   224  H          0.38030000       0.82870000       0.79610000
   225  H          0.89330000       0.59440000       0.49111000
   226  H          0.60670000       0.40560000      -0.00889000
   227  H          0.39330000       0.90560000       0.50889000
   228  H          0.10670000       0.09440000       0.00889000
   229  H          0.10670000       0.40560000       0.50889000
   230  H          0.39330000       0.59440000       0.00889000
   231  H          0.60670000       0.09440000       0.49111000
   232  H          0.89330000       0.90560000      -0.00889000
