data_TAPSAF02
_symmetry_space_group_name_H-M    'P1'
_symmetry_Int_Tables_number       1
loop_
_symmetry_equiv_pos_site_id
_symmetry_equiv_pos_as_xyz
1 x,y,z
_cell_length_a                   5.456612
_cell_length_b                   6.445114
_cell_length_c                   17.0524
_cell_angle_alpha                86.5195
_cell_angle_beta                 83.3365
_cell_angle_gamma                78.6444
loop_
_atom_site_label
_atom_site_type_symbol
_atom_site_fract_x
_atom_site_fract_y
_atom_site_fract_z
     1  C          0.01544000       0.03913000       0.10766130
     2  C         -0.01544000       0.96087000       0.89233870
     3  C          0.80515000       0.00434000       0.15608150
     4  C          0.19485000      -0.00434000       0.84391850
     5  H          0.66080000       0.10910000       0.16020000
     6  H          0.33920000       0.89090000       0.83980000
     7  C          0.80885000       0.81394000       0.19840150
     8  C          0.19115000       0.18606000       0.80159850
     9  H          0.66750000       0.79020000       0.23100000
    10  H          0.33250000       0.20980000       0.76900000
    11  C          0.02245000       0.66044000       0.19191140
    12  C          0.97755000       0.33956000       0.80808860
    13  C          0.23305000       0.69224000       0.14332150
    14  C          0.76695000       0.30776000       0.85667850
    15  H          0.37680000       0.58680000       0.13900000
    16  H          0.62320000       0.41320000       0.86100000
    17  C          0.22785000       0.88183000       0.10137140
    18  C          0.77215000       0.11817000       0.89862860
    19  H          0.36900000       0.90430000       0.06840000
    20  H          0.63100000       0.09570000       0.93160000
    21  C          0.01165000       0.24274000       0.06224140
    22  C         -0.01165000       0.75726000       0.93775860
    23  C          0.53695000       0.22024000       0.38679130
    24  C          0.46305000       0.77976000       0.61320870
    25  C          0.47705000       0.43594000       0.37427150
    26  C          0.52295000       0.56406000       0.62572850
    27  H          0.55460000       0.52380000       0.40030000
    28  H          0.44540000       0.47620000       0.59970000
    29  C          0.30155000       0.52324000       0.32302150
    30  C          0.69845000       0.47676000       0.67697850
    31  H          0.26020000       0.66930000       0.31500000
    32  H          0.73980000       0.33070000       0.68500000
    33  C          0.18844000       0.39314000       0.28400140
    34  C          0.81156000       0.60686000       0.71599860
    35  C          0.23935000       0.17624000       0.29840140
    36  C          0.76065000       0.82376000       0.70159860
    37  H          0.15760000       0.08870000       0.27370000
    38  H          0.84240000       0.91130000       0.72630000
    39  C          0.41295000       0.09224000       0.34992150
    40  C          0.58705000       0.90776000       0.65007850
    41  H          0.44750000       0.94660000       0.36010000
    42  H          0.55250000       0.05340000       0.63990000
    43  C          0.73215000       0.12244000       0.43785140
    44  C          0.26785000       0.87756000       0.56214860
    45  O          0.01243000       0.46702000       0.23199100
    46  O         -0.01243000       0.53298000       0.76800900
    47  O          0.80647000       0.37592000       0.06553100
    48  O          0.19353000       0.62408000       0.93446900
    49  H          0.82640000       0.48190000       0.03840000
    50  H          0.17360000       0.51810000       0.96160000
    51  O          0.21193000       0.27403000       0.02164110
    52  O          0.78807000       0.72597000       0.97835890
    53  O          0.82563000       0.24803000       0.47545110
    54  O          0.17437000       0.75197000       0.52454890
    55  H          0.93100000       0.17900000       0.50220000
    56  H          0.06900000       0.82100000       0.49780000
    57  O          0.80164000       0.92467000       0.44172110
    58  O          0.19836000       0.07533000       0.55827890
