data_TAPSAF01
_symmetry_space_group_name_H-M    'P1'
_symmetry_Int_Tables_number       1
loop_
_symmetry_equiv_pos_site_id
_symmetry_equiv_pos_as_xyz
1 x,y,z
_cell_length_a                   5.36549
_cell_length_b                   6.409311
_cell_length_c                   16.8473
_cell_angle_alpha                86.8483
_cell_angle_beta                 83.1063
_cell_angle_gamma                79.3093
loop_
_atom_site_label
_atom_site_type_symbol
_atom_site_fract_x
_atom_site_fract_y
_atom_site_fract_z
     1  O          0.17632000       0.24541180       0.02374700
     2  O          0.82368000       0.75458820       0.97625300
     3  H          0.06510000       0.31290000      -0.00370000
     4  H          0.93490000       0.68710000       0.00370000
     5  C          0.27123000       0.37773000       0.06123100
     6  C          0.72877000       0.62227000       0.93876900
     7  O          0.20192000       0.57409180       0.05702700
     8  O          0.79808000       0.42590820       0.94297300
     9  C          0.47203000       0.28163000       0.11236100
    10  C          0.52797000       0.71837000       0.88763900
    11  O          0.00462000       0.03887170       0.26827700
    12  O         -0.00462000       0.96112830       0.73172300
    13  C          0.59793000       0.41393000       0.14919100
    14  C          0.40207000       0.58607000       0.85080900
    15  H          0.56210000       0.56290000       0.13850000
    16  H          0.43790000       0.43710000       0.86150000
    17  O          0.19992000       0.12156170       0.43485700
    18  O          0.80008000       0.87843830       0.56514300
    19  C          0.77533000       0.33043000       0.20139100
    20  C          0.22467000       0.66957000       0.79860900
    21  H          0.86040000       0.42110000       0.22680000
    22  H          0.13960000       0.57890000       0.77320000
    23  O          0.78652000       0.22879180       0.47782700
    24  O          0.21348000       0.77120820       0.52217300
    25  H          0.80760000       0.10860000       0.50120000
    26  H          0.19240000       0.89140000       0.49880000
    27  C          0.82623000       0.11283000       0.21581100
    28  C          0.17377000       0.88717000       0.78418900
    29  C          0.71213000       0.97773000       0.17638100
    30  C          0.28787000       0.02227000       0.82361900
    31  H          0.75640000       0.82820000       0.18450000
    32  H          0.24360000       0.17180000       0.81550000
    33  C          0.53323000       0.06253000       0.12509100
    34  C          0.46677000       0.93747000       0.87490900
    35  H          0.45220000       0.97110000       0.09860000
    36  H          0.54780000       0.02890000       0.90140000
    37  C         -0.00787000       0.84473000       0.30857100
    38  C          0.00787000       0.15527000       0.69142900
    39  C          0.20953000       0.68903000       0.30130100
    40  C          0.79047000       0.31097000       0.69869900
    41  H          0.35710000       0.71340000       0.26760000
    42  H          0.64290000       0.28660000       0.73240000
    43  C          0.20983000       0.49773000       0.34358100
    44  C          0.79017000       0.50227000       0.65641900
    45  H          0.35840000       0.39030000       0.33910000
    46  H          0.64160000       0.60970000       0.66090000
    47  C         -0.00587000       0.46232000       0.39243900
    48  C          0.00587000       0.53768000       0.60756100
    49  C          0.77613000       0.62152000       0.39935100
    50  C          0.22387000       0.37848000       0.60064900
    51  H          0.62800000       0.59760000       0.43290000
    52  H          0.37200000       0.40240000       0.56710000
    53  C          0.77533000       0.81343000       0.35746100
    54  C          0.22467000       0.18657000       0.64253900
    55  H          0.62800000       0.92190000       0.36220000
    56  H          0.37200000       0.07810000       0.63780000
    57  C         -0.00447000       0.25693000       0.43785100
    58  C          0.00447000       0.74307000       0.56214900
