data_TBZDTY03
_symmetry_space_group_name_H-M    'P1'
_symmetry_Int_Tables_number       1
loop_
_symmetry_equiv_pos_site_id
_symmetry_equiv_pos_as_xyz
1 x,y,z
_cell_length_a                   5.0756916
_cell_length_b                   18.17344
_cell_length_c                   33.19007
_cell_angle_alpha                90.0
_cell_angle_beta                 90.0
_cell_angle_gamma                90.0
loop_
_atom_site_label
_atom_site_type_symbol
_atom_site_fract_x
_atom_site_fract_y
_atom_site_fract_z
     1  C          0.55065000       0.26318110       0.29193600
     2  C          0.94935000       0.73681890       0.79193600
     3  C          0.44935000       0.76318110       0.20806400
     4  C          0.05065000       0.23681890       0.70806400
     5  C          0.42185000       0.26532110       0.33024600
     6  C          0.07815000       0.73467890       0.83024600
     7  C          0.57815000       0.76532110       0.16975400
     8  C          0.92185000       0.23467890       0.66975400
     9  C          0.30745000       0.26782110       0.36202600
    10  C          0.19255000       0.73217890       0.86202600
    11  C          0.69255000       0.76782110       0.13797400
    12  C          0.80745000       0.23217890       0.63797400
    13  C          0.16425000       0.27242110       0.39888600
    14  C          0.33575000       0.72757890       0.89888600
    15  C          0.83575000       0.77242110       0.10111400
    16  C          0.66425000       0.22757890       0.60111400
    17  C          0.22215000       0.32816110       0.42687600
    18  C          0.27785000       0.67183890       0.92687600
    19  C          0.77785000       0.82816110       0.07312400
    20  C          0.72215000       0.17183890       0.57312400
    21  C          0.07275000       0.33586120       0.46132600
    22  C          0.42725000       0.66413880       0.96132600
    23  C          0.92725000       0.83586120       0.03867400
    24  C          0.57275000       0.16413880       0.53867400
    25  C          0.86635000       0.28743120       0.46934600
    26  C          0.63365000       0.71256880       0.96934600
    27  C          0.13365000       0.78743120       0.03065400
    28  C          0.36635000       0.21256880       0.53065400
    29  C          0.81165000       0.23079120       0.44258600
    30  C          0.68835000       0.76920880       0.94258600
    31  C          0.18835000       0.73079120       0.05741400
    32  C          0.31165000       0.26920880       0.55741400
    33  C          0.95685000       0.22273110       0.40714600
    34  C          0.54315000       0.77726890       0.90714600
    35  C          0.04315000       0.72273110       0.09285400
    36  C          0.45685000       0.27726890       0.59285400
    37  C          0.89025000       0.16646120       0.37882600
    38  C          0.60975000       0.83353880       0.87882600
    39  C          0.10975000       0.66646120       0.12117400
    40  C          0.39025000       0.33353880       0.62117400
    41  C          0.82695000       0.12120110       0.35414600
    42  C          0.67305000       0.87879890       0.85414600
    43  C          0.17305000       0.62120110       0.14585400
    44  C          0.32695000       0.37879890       0.64585400
    45  C          0.74725000       0.06934110       0.32401600
    46  C          0.75275000       0.93065890       0.82401600
    47  C          0.25275000       0.56934110       0.17598400
    48  C          0.24725000       0.43065890       0.67598400
    49  C          0.53855000       0.02102120       0.33140600
    50  C          0.96145000       0.97897880       0.83140600
    51  C          0.46145000       0.52102120       0.16859400
    52  C          0.03855000       0.47897880       0.66859400
    53  C          0.46155000       0.96989890       0.30253700
    54  C          0.03845000       0.03010110       0.80253700
    55  C          0.53845000       0.46989890       0.19746300
    56  C          0.96155000       0.53010110       0.69746300
    57  C          0.59244000       0.96709880       0.26595700
    58  C          0.90756000       0.03290120       0.76595700
    59  C          0.40756000       0.46709880       0.23404300
    60  C          0.09244000       0.53290120       0.73404300
    61  C          0.79705000       0.01518120       0.25766600
    62  C          0.70295000       0.98481880       0.75766600
    63  C          0.20295000       0.51518120       0.24233400
    64  C          0.29705000       0.48481880       0.74233400
    65  C          0.87645000       0.06749110       0.28641600
    66  C          0.62355000       0.93250890       0.78641600
    67  C          0.12355000       0.56749110       0.21358400
    68  C          0.37645000       0.43250890       0.71358400
    69  C          0.08365000       0.11854110       0.27754600
    70  C          0.41635000       0.88145890       0.77754600
    71  C          0.91635000       0.61854110       0.22245400
    72  C          0.58365000       0.38145890       0.72245400
    73  C          0.25555000       0.16239110       0.27024600
    74  C          0.24445000       0.83760890       0.77024600
    75  C          0.74445000       0.66239110       0.22975400
    76  C          0.75555000       0.33760890       0.72975400
    77  C          0.46185000       0.21362110       0.26183600
    78  C          0.03815000       0.78637890       0.76183600
    79  C          0.53815000       0.71362110       0.23816400
    80  C          0.96185000       0.28637890       0.73816400
    81  C          0.58125000       0.21559110       0.22393600
    82  C          0.91875000       0.78440890       0.72393600
    83  C          0.41875000       0.71559110       0.27606400
    84  C          0.08125000       0.28440890       0.77606400
    85  C          0.78485000       0.26423120       0.21595600
    86  C          0.71515000       0.73576880       0.71595600
    87  C          0.21515000       0.76423120       0.28404400
    88  C          0.28485000       0.23576880       0.78404400
    89  C          0.87745000       0.31145120       0.24584700
    90  C          0.62255000       0.68854880       0.74584700
    91  C          0.12255000       0.81145120       0.25415300
    92  C          0.37745000       0.18854880       0.75415300
    93  C          0.76065000       0.31078110       0.28352700
    94  C          0.73935000       0.68921890       0.78352700
    95  C          0.23935000       0.81078110       0.21647300
    96  C          0.26065000       0.18921890       0.71647300
    97  H          0.02370000       0.34671600       0.23909000
    98  H          0.47630000       0.65328400       0.73909000
    99  H         -0.02370000       0.84671600       0.26091000
   100  H          0.52370000       0.15328400       0.76091000
   101  H          0.43440000       0.02421400       0.35918000
   102  H          0.06560000       0.97578600       0.85918000
   103  H          0.56560000       0.52421400       0.14082000
   104  H          0.93440000       0.47578600       0.64082000
   105  H          0.87260000       0.26381400       0.18878000
   106  H          0.62740000       0.73618600       0.68878000
   107  H          0.12740000       0.76381400       0.31122000
   108  H          0.37260000       0.23618600       0.81122000
   109  H          0.89040000       0.01401300       0.23217000
   110  H          0.60960000       0.98598700       0.73217000
   111  H          0.10960000       0.51401300       0.26783000
   112  H          0.39040000       0.48598700       0.76783000
   113  H          0.31330000       0.93578400       0.30748000
   114  H          0.18670000       0.06421600       0.80748000
   115  H          0.68670000       0.43578400       0.19252000
   116  H          0.81330000       0.56421600       0.69252000
   117  H          0.36670000       0.36421500       0.42058000
   118  H          0.13330000       0.63578500       0.92058000
   119  H          0.63330000       0.86421500       0.07942000
   120  H          0.86670000       0.13578500       0.57942000
   121  H          0.11270000       0.37781700       0.48049000
   122  H          0.38730000       0.62218300       0.98049000
   123  H          0.88730000       0.87781700       0.01951000
   124  H          0.61270000       0.12218300       0.51951000
   125  H          0.75030000       0.29341400       0.49338000
   126  H          0.74970000       0.70658600       0.99338000
   127  H          0.24970000       0.79341400       0.00662000
   128  H          0.25030000       0.20658600       0.50662000
   129  H          0.82870000       0.34411600       0.30478000
   130  H          0.67130000       0.65588400       0.80478000
   131  H          0.17130000       0.84411600       0.19522000
   132  H          0.32870000       0.15588400       0.69522000
   133  H          0.66330000       0.19791500       0.44798000
   134  H          0.83670000       0.80208500       0.94798000
   135  H          0.33670000       0.69791500       0.05202000
   136  H          0.16330000       0.30208500       0.55202000
   137  H          0.51970000       0.18091600       0.20259000
   138  H         -0.01970000       0.81908400       0.70259000
   139  H          0.48030000       0.68091600       0.29741000
   140  H          0.01970000       0.31908400       0.79741000
   141  H          0.54530000       0.93138400       0.24578000
   142  H          0.95470000       0.06861600       0.74578000
   143  H          0.45470000       0.43138400       0.25422000
   144  H          0.04530000       0.56861600       0.75422000
   145  C          0.66185000       0.75326110       0.39186600
   146  C          0.83815000       0.24673890       0.89186600
   147  C          0.33815000       0.25326110       0.10813400
   148  C          0.16185000       0.74673890       0.60813400
   149  C          0.47135000       0.69698110       0.38451600
   150  C          0.02865000       0.30301890       0.88451600
   151  C          0.52865000       0.19698110       0.11548400
   152  C          0.97135000       0.80301890       0.61548400
   153  C          0.31425000       0.64852110       0.37858600
   154  C          0.18575000       0.35147890       0.87858600
   155  C          0.68575000       0.14852110       0.12141400
   156  C          0.81425000       0.85147890       0.62141400
   157  C          0.12485000       0.59201110       0.37133600
   158  C          0.37515000       0.40798890       0.87133600
   159  C          0.87515000       0.09201110       0.12866400
   160  C          0.62485000       0.90798890       0.62866400
   161  C          0.95625000       0.59605120       0.33810600
   162  C          0.54375000       0.40394880       0.83810600
   163  C          0.04375000       0.09605120       0.16189400
   164  C          0.45625000       0.90394880       0.66189400
   165  C          0.76715000       0.54242120       0.33114600
   166  C          0.73285000       0.45757880       0.83114600
   167  C          0.23285000       0.04242120       0.16885400
   168  C          0.26715000       0.95757880       0.66885400
   169  C          0.74225000       0.48370120       0.35777600
   170  C          0.75775000       0.51629880       0.85777600
   171  C          0.25775000       0.98370120       0.14222400
   172  C          0.24225000       0.01629880       0.64222400
   173  C          0.90735000       0.47843120       0.39091600
   174  C          0.59265000       0.52156880       0.89091600
   175  C          0.09265000       0.97843120       0.10908400
   176  C          0.40735000       0.02156880       0.60908400
   177  C          0.10305000       0.53130110       0.39807600
   178  C          0.39695000       0.46869890       0.89807600
   179  C          0.89695000       0.03130110       0.10192400
   180  C          0.60305000       0.96869890       0.60192400
   181  C          0.27845000       0.52450110       0.43153600
   182  C          0.22155000       0.47549890       0.93153600
   183  C          0.72155000       0.02450110       0.06846400
   184  C          0.77845000       0.97549890       0.56846400
   185  C          0.43175000       0.51846110       0.45924600
   186  C          0.06825000       0.48153890       0.95924600
   187  C          0.56825000       0.01846110       0.04075400
   188  C          0.93175000       0.98153890       0.54075400
   189  C          0.61815000       0.51236120       0.49141600
   190  C          0.88185000       0.48763880       0.99141600
   191  C          0.38185000       0.01236120       0.00858400
   192  C          0.11815000       0.98763880       0.50858400
   193  C          0.61825000       0.45110120       0.51733600
   194  C          0.88175000       0.54889880       0.01733600
   195  C          0.38175000       0.95110120       0.98266400
   196  C          0.11825000       0.04889880       0.48266400
   197  C          0.80476000       0.44433120       0.54744600
   198  C          0.69524000       0.55566880       0.04744600
   199  C          0.19524000       0.94433120       0.95255400
   200  C          0.30476000       0.05566880       0.45255400
   201  C         -0.00255000       0.49794120       0.55250600
   202  C          0.50255000       0.50205880       0.05250600
   203  C          0.00255000      -0.00205880       0.94749400
   204  C          0.49745000       0.00205880       0.44749400
   205  C         -0.00195000       0.55969120       0.52779600
   206  C          0.50195000       0.44030880       0.02779600
   207  C          0.00195000       0.05969120       0.97220400
   208  C          0.49805000       0.94030880       0.47220400
   209  C          0.80965000       0.56778110       0.49743600
   210  C          0.69035000       0.43221890      -0.00256400
   211  C          0.19035000       0.06778110       0.00256400
   212  C          0.30965000       0.93221890       0.50256400
   213  C          0.81225000       0.63185120       0.47245600
   214  C          0.68775000       0.36814880       0.97245600
   215  C          0.18775000       0.13185120       0.02754400
   216  C          0.31225000       0.86814880       0.52754400
   217  C          0.81905000       0.68597110       0.45164600
   218  C          0.68095000       0.31402890       0.95164600
   219  C          0.18095000       0.18597110       0.04835400
   220  C          0.31905000       0.81402890       0.54835400
   221  C          0.83185000       0.74816110       0.42539600
   222  C          0.66815000       0.25183890       0.92539600
   223  C          0.16815000       0.24816110       0.07460400
   224  C          0.33185000       0.75183890       0.57460400
   225  C          0.01955000       0.80331120       0.43200600
   226  C          0.48045000       0.19668880       0.93200600
   227  C         -0.01955000       0.30331120       0.06799400
   228  C          0.51955000       0.69668880       0.56799400
   229  C          0.03845000       0.86275120       0.40573700
   230  C          0.46155000       0.13724880       0.90573700
   231  C          0.96155000       0.36275120       0.09426300
   232  C          0.53845000       0.63724880       0.59426300
   233  C          0.87205000       0.86784120       0.37295700
   234  C          0.62795000       0.13215880       0.87295700
   235  C          0.12795000       0.36784120       0.12704300
   236  C          0.37205000       0.63215880       0.62704300
   237  C          0.68295000       0.81404120       0.36601600
   238  C          0.81705000       0.18595880       0.86601600
   239  C          0.31705000       0.31404120       0.13398400
   240  C          0.18295000       0.68595880       0.63398400
   241  H          0.80370000       0.40051600       0.56538000
   242  H          0.69630000       0.59948400       0.06538000
   243  H          0.19630000       0.90051600       0.93462000
   244  H          0.30370000       0.09948400       0.43462000
   245  H          0.13070000       0.49291400       0.57428000
   246  H          0.36930000       0.50708600       0.07428000
   247  H          0.86930000      -0.00708600       0.92572000
   248  H          0.63070000       0.00708600       0.42572000
   249  H          0.13770000       0.59861600       0.53158000
   250  H          0.36230000       0.40138400       0.03158000
   251  H          0.86230000       0.09861600       0.96842000
   252  H          0.63770000       0.90138400       0.46842000
   253  H          0.64730000       0.54621500       0.30688000
   254  H          0.85270000       0.45378500       0.80688000
   255  H          0.35270000       0.04621500       0.19312000
   256  H          0.14730000       0.95378500       0.69312000
   257  H          0.60440000       0.44591400       0.35397000
   258  H          0.89560000       0.55408600       0.85397000
   259  H          0.39560000       0.94591400       0.14603000
   260  H          0.10440000       0.05408600       0.64603000
   261  H          0.17770000       0.90041600       0.41098000
   262  H          0.32230000       0.09958400       0.91098000
   263  H          0.82230000       0.40041600       0.08902000
   264  H          0.67770000       0.59958400       0.58902000
   265  H          0.56160000       0.81691500       0.34278000
   266  H          0.93840000       0.18308500       0.84278000
   267  H          0.43840000       0.31691500       0.15722000
   268  H          0.06160000       0.68308500       0.65722000
   269  H          0.87830000       0.43681600       0.41038000
   270  H          0.62170000       0.56318400       0.91038000
   271  H          0.12170000       0.93681600       0.08962000
   272  H          0.37830000       0.06318400       0.58962000
   273  H          0.47670000       0.41341600       0.51248000
   274  H          0.02330000       0.58658400       0.01248000
   275  H          0.52330000       0.91341600       0.98752000
   276  H         -0.02330000       0.08658400       0.48752000
   277  H          0.96920000       0.63961800       0.31899000
   278  H          0.53080000       0.36038200       0.81899000
   279  H          0.03080000       0.13961800       0.18101000
   280  H          0.46920000       0.86038200       0.68101000
   281  H          0.13870000       0.79931600       0.45639000
   282  H          0.36130000       0.20068400       0.95639000
   283  H          0.86130000       0.29931600       0.04361000
   284  H          0.63870000       0.70068400       0.54361000
   285  H          0.88970000       0.91011600       0.35398000
   286  H          0.61030000       0.08988400       0.85398000
   287  H          0.11030000       0.41011600       0.14602000
   288  H          0.38970000       0.58988400       0.64602000
