data_TBZDTY01
_symmetry_space_group_name_H-M    'P1'
_symmetry_Int_Tables_number       1
loop_
_symmetry_equiv_pos_site_id
_symmetry_equiv_pos_as_xyz
1 x,y,z
_cell_length_a                   15.7793
_cell_length_b                   11.1032
_cell_length_c                   12.4493
_cell_angle_alpha                90.0
_cell_angle_beta                 132.602
_cell_angle_gamma                90.0
loop_
_atom_site_label
_atom_site_type_symbol
_atom_site_fract_x
_atom_site_fract_y
_atom_site_fract_z
     1  C          0.42506000       0.89677000       0.77860000
     2  C          0.57494000       0.39677000       0.72140000
     3  C          0.57494000       0.10323000       0.22140000
     4  C          0.42506000       0.60323000       0.27860000
     5  C          0.33790000       0.92458000       0.23038000
     6  C          0.66210000       0.42458000       0.26962000
     7  C          0.66210000       0.07542000       0.76962000
     8  C          0.33790000       0.57542000       0.73038000
     9  C          0.27947000       0.95612000       0.08789000
    10  C          0.72053000       0.45612000       0.41211000
    11  C          0.72053000       0.04388000       0.91211000
    12  C          0.27947000       0.54388000       0.58789000
    13  C          0.17819000       0.02036000       0.00759000
    14  C          0.82181000       0.52036000       0.49241000
    15  C          0.82181000       0.97964000      -0.00759000
    16  C          0.17819000       0.47964000       0.50759000
    17  C          0.13491000       0.05276000       0.06876000
    18  C          0.86509000       0.55276000       0.43124000
    19  C          0.86509000       0.94724000       0.93124000
    20  C          0.13491000       0.44724000       0.56876000
    21  C          0.19171000       0.02142000       0.21219000
    22  C          0.80829000       0.52142000       0.28781000
    23  C          0.80829000       0.97858000       0.78781000
    24  C          0.19171000       0.47858000       0.71219000
    25  C          0.14536000       0.05418000       0.27521000
    26  C          0.85464000       0.55418000       0.22479000
    27  C          0.85464000       0.94582000       0.72479000
    28  C          0.14536000       0.44582000       0.77521000
    29  C          0.35441000       0.92075000       0.44098000
    30  C          0.64559000       0.42075000       0.05902000
    31  C          0.64559000       0.07925000       0.55902000
    32  C          0.35441000       0.57925000       0.94098000
    33  C          0.06637000       0.11699000       0.39727000
    34  C          0.93363000       0.61699000       0.10273000
    35  C          0.93363000       0.88301000       0.60273000
    36  C          0.06637000       0.38301000       0.89727000
    37  C          0.95938000       0.17308000       0.31598000
    38  C          0.04062000       0.67308000       0.18402000
    39  C          0.04062000       0.82692000       0.68402000
    40  C          0.95938000       0.32692000       0.81598000
    41  C          0.91773000       0.20402000       0.38013000
    42  C          0.08227000       0.70402000       0.11987000
    43  C          0.08227000       0.79598000       0.61987000
    44  C          0.91773000       0.29598000       0.88013000
    45  C          0.48718000       0.86230000       0.92304000
    46  C          0.51282000       0.36230000       0.57696000
    47  C          0.51282000       0.13770000       0.07696000
    48  C          0.48718000       0.63770000       0.42304000
    49  C          0.98211000       0.18304000       0.52592000
    50  C          0.01789000       0.68304000       0.97408000
    51  C          0.01789000       0.81696000       0.47408000
    52  C          0.98211000       0.31696000       0.02592000
    53  C          0.08866000       0.12914000       0.60907000
    54  C          0.91134000       0.62914000       0.89093000
    55  C          0.91134000       0.87086000       0.39093000
    56  C          0.08866000       0.37086000       0.10907000
    57  C          0.13214000       0.09402000       0.54674000
    58  C          0.86786000       0.59402000       0.95326000
    59  C          0.86786000       0.90598000       0.45326000
    60  C          0.13214000       0.40598000       0.04674000
    61  C          0.23891000       0.02981000       0.63160000
    62  C          0.76109000       0.52981000       0.86840000
    63  C          0.76109000       0.97019000       0.36840000
    64  C          0.23891000       0.47019000       0.13160000
    65  C          0.10856000       0.08183000       0.32973000
    66  C          0.89144000       0.58183000       0.17027000
    67  C          0.89144000       0.91817000       0.67027000
    68  C          0.10856000       0.41817000       0.82973000
    69  C          0.58323000       0.79056000      -0.00327000
    70  C          0.41677000       0.29056000       0.50327000
    71  C          0.41677000       0.20944000       0.00327000
    72  C          0.58323000       0.70944000       0.49673000
    73  C          0.61886000       0.75011000       0.92875000
    74  C          0.38114000       0.25011000       0.57125000
    75  C          0.38114000       0.24989000       0.07125000
    76  C          0.61886000       0.74989000       0.42875000
    77  C          0.55851000       0.78195000       0.78583000
    78  C          0.44149000       0.28195000       0.71417000
    79  C          0.44149000       0.21805000       0.21417000
    80  C          0.55851000       0.71805000       0.28583000
    81  C          0.46249000       0.85609000       0.70922000
    82  C          0.53751000       0.35609000       0.79078000
    83  C          0.53751000       0.14391000       0.29078000
    84  C          0.46249000       0.64391000       0.20922000
    85  C          0.40245000       0.89077000       0.56217000
    86  C          0.59755000       0.39077000       0.93783000
    87  C          0.59755000       0.10923000       0.43783000
    88  C          0.40245000       0.60923000       0.06217000
    89  C          0.32443000       0.97048000       0.70032000
    90  C          0.67557000       0.47048000       0.79968000
    91  C          0.67557000       0.02952000       0.29968000
    92  C          0.32443000       0.52952000       0.20032000
    93  C          0.29516000       0.95646000       0.29401000
    94  C          0.70484000       0.45646000       0.20599000
    95  C          0.70484000       0.04354000       0.70599000
    96  C          0.29516000       0.54354000       0.79401000
    97  H          0.45790000       0.89250000       0.96800000
    98  H          0.54210000       0.39250000       0.53200000
    99  H          0.54210000       0.10750000       0.03200000
   100  H          0.45790000       0.60750000       0.46800000
   101  H          0.84200000       0.24040000       0.31910000
   102  H          0.15800000       0.74040000       0.18090000
   103  H          0.15800000       0.75960000       0.68090000
   104  H          0.84200000       0.25960000       0.81910000
   105  H          0.95590000       0.20470000       0.57540000
   106  H          0.04410000       0.70470000       0.92460000
   107  H          0.04410000       0.79530000       0.42460000
   108  H          0.95590000       0.29530000       0.07540000
   109  H          0.13920000       0.11360000       0.71950000
   110  H          0.86080000       0.61360000       0.78050000
   111  H          0.86080000       0.88640000       0.28050000
   112  H          0.13920000       0.38640000       0.21950000
   113  H          0.62580000       0.76690000       0.10020000
   114  H          0.37420000       0.26690000       0.39980000
   115  H          0.37420000       0.23310000       0.89980000
   116  H          0.62580000       0.73310000       0.60020000
   117  H          0.68760000       0.69410000       0.98080000
   118  H          0.31240000       0.19410000       0.51920000
   119  H          0.31240000       0.30590000       0.01920000
   120  H          0.68760000       0.80590000       0.48080000
   121  H          0.58380000       0.75190000       0.73500000
   122  H          0.41620000       0.25190000       0.76500000
   123  H          0.41620000       0.24810000       0.26500000
   124  H          0.58380000       0.74810000       0.23500000
   125  H          0.41250000       0.87900000       0.29110000
   126  H          0.58750000       0.37900000       0.20890000
   127  H          0.58750000       0.12100000       0.70890000
   128  H          0.41250000       0.62100000       0.79110000
   129  H          0.31040000       0.93280000       0.04270000
   130  H          0.68960000       0.43280000       0.45730000
   131  H          0.68960000       0.06720000       0.95730000
   132  H          0.31040000       0.56720000       0.54270000
   133  H          0.13760000       0.04370000       0.90410000
   134  H          0.86240000       0.54370000       0.59590000
   135  H          0.86240000       0.95630000       0.09590000
   136  H          0.13760000       0.45630000       0.40410000
   137  H          0.06350000       0.09720000       0.01260000
   138  H          0.93650000       0.59720000       0.48740000
   139  H          0.93650000       0.90280000      -0.01260000
   140  H          0.06350000       0.40280000       0.51260000
   141  H          0.91310000       0.19070000       0.21030000
   142  H          0.08690000       0.69070000       0.28970000
   143  H          0.08690000       0.80930000       0.78970000
   144  H          0.91310000       0.30930000       0.71030000
