data_TBZDTY04
_symmetry_space_group_name_H-M    'P1'
_symmetry_Int_Tables_number       1
loop_
_symmetry_equiv_pos_site_id
_symmetry_equiv_pos_as_xyz
1 x,y,z
_cell_length_a                   20.04379
_cell_length_b                   14.53328
_cell_length_c                   10.75365
_cell_angle_alpha                90.0
_cell_angle_beta                 90.0
_cell_angle_gamma                90.0
loop_
_atom_site_label
_atom_site_type_symbol
_atom_site_fract_x
_atom_site_fract_y
_atom_site_fract_z
     1  C          0.45399170       0.59453000       0.51553000
     2  C          0.54600830       0.40547000       0.01553000
     3  C          0.95399170       0.40547000       0.51553000
     4  C          0.04600830       0.59453000       0.01553000
     5  C          0.39653160       0.54272000       0.53403000
     6  C          0.60346840       0.45728000       0.03403000
     7  C          0.89653160       0.45728000       0.53403000
     8  C          0.10346840       0.54272000       0.03403000
     9  H          0.35870700       0.55512500       0.48680000
    10  H          0.64129300       0.44487500       0.98680000
    11  H          0.85870700       0.44487500       0.48680000
    12  H          0.14129300       0.55512500       0.98680000
    13  C          0.39472170       0.47313000       0.62143000
    14  C          0.60527830       0.52687000       0.12143000
    15  C          0.89472170       0.52687000       0.62143000
    16  C          0.10527830       0.47313000       0.12143000
    17  H          0.35607700       0.43855900       0.63178700
    18  H          0.64392300       0.56144100       0.13178700
    19  H          0.85607700       0.56144100       0.63178700
    20  H          0.14392300       0.43855900       0.13178700
    21  C          0.45032170       0.45473000       0.69353000
    22  C          0.54967830       0.54527000       0.19353000
    23  C          0.95032170       0.54527000       0.69353000
    24  C          0.04967830       0.45473000       0.19353000
    25  H          0.44910300       0.40792900       0.75241700
    26  H          0.55089700       0.59207100       0.25241700
    27  H          0.94910300       0.59207100       0.75241700
    28  H          0.05089700       0.40792900       0.25241700
    29  C          0.50825180       0.50673000       0.67753000
    30  C          0.49174820       0.49327000       0.17753000
    31  C          0.00825180       0.49327000       0.67753000
    32  C          0.99174820       0.50673000       0.17753000
    33  H          0.54555400       0.49428900       0.72609500
    34  H          0.45444600       0.50571100       0.22609500
    35  H          0.04555400       0.50571100       0.72609500
    36  H          0.95444600       0.49428900       0.22609500
    37  C          0.51085160       0.57713000       0.58953000
    38  C          0.48914840       0.42287000       0.08953000
    39  C          0.01085160       0.42287000       0.58953000
    40  C          0.98914840       0.57713000       0.08953000
    41  C          0.56896170       0.63463000       0.57783000
    42  C          0.43103830       0.36537000       0.07783000
    43  C          0.06896170       0.36537000       0.57783000
    44  C          0.93103830       0.63463000       0.07783000
    45  C          0.61507170       0.68633000       0.57073000
    46  C          0.38492830       0.31367000       0.07073000
    47  C          0.11507170       0.31367000       0.57073000
    48  C          0.88492830       0.68633000       0.07073000
    49  C          0.66782160       0.75383000       0.56953000
    50  C          0.33217840       0.24617000       0.06953000
    51  C          0.16782160       0.24617000       0.56953000
    52  C          0.83217840       0.75383000       0.06953000
    53  C          0.72360170       0.74423000       0.64673000
    54  C          0.27639830       0.25577000       0.14673000
    55  C          0.22360170       0.25577000       0.64673000
    56  C          0.77639830       0.74423000       0.14673000
    57  H          0.72812500       0.69175000       0.69544800
    58  H          0.27187500       0.30825000       0.19544800
    59  H          0.22812500       0.30825000       0.69544800
    60  H          0.77187500       0.69175000       0.19544800
    61  C          0.77222180       0.81213000       0.65153000
    62  C          0.22777820       0.18787000       0.15153000
    63  C          0.27222180       0.18787000       0.65153000
    64  C          0.72777820       0.81213000       0.15153000
    65  H          0.80904300       0.80486300       0.70320300
    66  H          0.19095700       0.19513700       0.20320300
    67  H          0.30904300       0.19513700       0.70320300
    68  H          0.69095700       0.80486300       0.20320300
    69  C          0.76595170       0.89073000       0.57913000
    70  C          0.23404830       0.10927000       0.07913000
    71  C          0.26595170       0.10927000       0.57913000
    72  C          0.73404830       0.89073000       0.07913000
    73  H          0.79826500       0.93652200       0.58298300
    74  H          0.20173500       0.06347800       0.08298300
    75  H          0.29826500       0.06347800       0.58298300
    76  H          0.70173500       0.93652200       0.08298300
    77  C          0.71166180       0.90083000       0.50123000
    78  C          0.28833820       0.09917000       0.00123000
    79  C          0.21166180       0.09917000       0.50123000
    80  C          0.78833820       0.90083000       0.00123000
    81  H          0.70793400       0.95342100       0.45256800
    82  H          0.29206600       0.04657900       0.95256800
    83  H          0.20793400       0.04657900       0.45256800
    84  H          0.79206600       0.95342100       0.95256800
    85  C          0.66228170       0.83322000       0.49433000
    86  C          0.33771830       0.16678000      -0.00567000
    87  C          0.16228170       0.16678000       0.49433000
    88  C          0.83771830       0.83322000      -0.00567000
    89  C          0.60696180       0.84273000       0.41074000
    90  C          0.39303820       0.15727000       0.91074000
    91  C          0.10696180       0.15727000       0.41074000
    92  C          0.89303820       0.84273000       0.91074000
    93  C          0.56249180       0.84903000       0.33653000
    94  C          0.43750820       0.15097000       0.83653000
    95  C          0.06249180       0.15097000       0.33653000
    96  C          0.93750820       0.84903000       0.83653000
    97  C          0.51022170       0.85523000       0.24583000
    98  C          0.48977830       0.14477000       0.74583000
    99  C          0.01022170       0.14477000       0.24583000
   100  C          0.98977830       0.85523000       0.74583000
   101  C          0.51191190       0.92483000       0.15463000
   102  C          0.48808810       0.07517000       0.65463000
   103  C          0.01191190       0.07517000       0.15463000
   104  C          0.98808810       0.92483000       0.65463000
   105  H          0.54657000       0.96737400       0.15405400
   106  H          0.45343000       0.03262600       0.65405400
   107  H          0.04657000       0.03262600       0.15405400
   108  H          0.95343000       0.96737400       0.65405400
   109  C          0.46207190       0.92993000       0.06614000
   110  C          0.53792810       0.07007000       0.56614000
   111  C          0.96207190       0.07007000       0.06614000
   112  C          0.03792810       0.92993000       0.56614000
   113  H          0.46308000       0.97627400       0.00654700
   114  H          0.53692000       0.02372600       0.50654700
   115  H          0.96308000       0.02372600       0.00654700
   116  H          0.03692000       0.97627400       0.50654700
   117  C          0.41089190       0.86663000       0.06543000
   118  C          0.58910810       0.13337000       0.56543000
   119  C          0.91089190       0.13337000       0.06543000
   120  C          0.08910810       0.86663000       0.56543000
   121  H          0.37785300       0.87025200       0.00490900
   122  H          0.62214700       0.12974800       0.50490900
   123  H          0.87785300       0.12974800       0.00490900
   124  H          0.12214700       0.87025200       0.50490900
   125  C          0.40821190       0.79763000       0.15403000
   126  C          0.59178810       0.20237000       0.65403000
   127  C          0.90821190       0.20237000       0.15403000
   128  C          0.09178810       0.79763000       0.65403000
   129  H          0.37330900       0.75542100       0.15309300
   130  H          0.62669100       0.24457900       0.65309300
   131  H          0.87330900       0.24457900       0.15309300
   132  H          0.12669100       0.75542100       0.65309300
   133  C          0.45788180       0.79123000       0.24503000
   134  C          0.54211820       0.20877000       0.74503000
   135  C          0.95788180       0.20877000       0.24503000
   136  C          0.04211820       0.79123000       0.74503000
   137  C          0.45526170       0.72153000       0.33963000
   138  C          0.54473830       0.27847000       0.83963000
   139  C          0.95526170       0.27847000       0.33963000
   140  C          0.04473830       0.72153000       0.83963000
   141  C          0.45501170       0.66503000       0.42163000
   142  C          0.54498830       0.33497000       0.92163000
   143  C          0.95501170       0.33497000       0.42163000
   144  C          0.04498830       0.66503000       0.92163000
   145  C          0.25664170       0.60162000       0.72983000
   146  C          0.74335830       0.39838000       0.22983000
   147  C          0.75664170       0.39838000       0.72983000
   148  C          0.24335830       0.60162000       0.22983000
   149  C          0.20029170       0.54573000       0.71923000
   150  C          0.79970830       0.45427000       0.21923000
   151  C          0.70029170       0.45427000       0.71923000
   152  C          0.29970830       0.54573000       0.21923000
   153  H          0.16760700       0.56041800       0.66111500
   154  H          0.83239300       0.43958200       0.16111500
   155  H          0.66760700       0.43958200       0.66111500
   156  H          0.33239300       0.56041800       0.16111500
   157  C          0.19216180       0.46893000       0.79343000
   158  C          0.80783820       0.53107000       0.29343000
   159  C          0.69216180       0.53107000       0.79343000
   160  C          0.30783820       0.46893000       0.29343000
   161  H          0.15422200       0.43249300       0.78553300
   162  H          0.84577800       0.56750700       0.28553300
   163  H          0.65422200       0.56750700       0.78553300
   164  H          0.34577800       0.43249300       0.28553300
   165  C          0.24097180       0.44633000       0.87993000
   166  C          0.75902820       0.55367000       0.37993000
   167  C          0.74097180       0.55367000       0.87993000
   168  C          0.25902820       0.44633000       0.37993000
   169  H          0.23601900       0.39401200       0.92895000
   170  H          0.76398100       0.60598800       0.42895000
   171  H          0.73601900       0.60598800       0.92895000
   172  H          0.26398100       0.39401200       0.42895000
   173  C          0.29656170       0.50073000       0.89323000
   174  C          0.70343830       0.49927000       0.39323000
   175  C          0.79656170       0.49927000       0.89323000
   176  C          0.20343830       0.50073000       0.39323000
   177  H          0.32879500       0.48494100       0.95161900
   178  H          0.67120500       0.51505900       0.45161900
   179  H          0.82879500       0.51505900       0.95161900
   180  H          0.17120500       0.48494100       0.45161900
   181  C          0.30545170       0.57923000       0.82083000
   182  C          0.69454830       0.42077000       0.32083000
   183  C          0.80545170       0.42077000       0.82083000
   184  C          0.19454830       0.57923000       0.32083000
   185  C          0.36423170       0.63382000       0.83333000
   186  C          0.63576830       0.36618000       0.33333000
   187  C          0.86423170       0.36618000       0.83333000
   188  C          0.13576830       0.63382000       0.33333000
   189  C          0.41530180       0.67703000       0.83923000
   190  C          0.58469820       0.32297000       0.33923000
   191  C          0.91530180       0.32297000       0.83923000
   192  C          0.08469820       0.67703000       0.33923000
   193  C          0.47679170       0.72663000       0.84633000
   194  C          0.52320830       0.27337000       0.34633000
   195  C          0.97679170       0.27337000       0.84633000
   196  C          0.02320830       0.72663000       0.34633000
   197  C          0.52607180       0.69933000       0.93043000
   198  C          0.47392820       0.30067000       0.43043000
   199  C          0.02607180       0.30067000       0.93043000
   200  C          0.97392820       0.69933000       0.43043000
   201  H          0.51814600       0.64973800       0.98309200
   202  H          0.48185400       0.35026200       0.48309200
   203  H          0.01814600       0.35026200       0.98309200
   204  H          0.98185400       0.64973800       0.48309200
   205  C          0.58656190       0.74503000       0.93643000
   206  C          0.41343810       0.25497000       0.43643000
   207  C          0.08656190       0.25497000       0.93643000
   208  C          0.91343810       0.74503000       0.43643000
   209  H          0.61922100       0.72581800      -0.00794900
   210  H          0.38077900       0.27418200       0.49205100
   211  H          0.11922100       0.27418200      -0.00794900
   212  H          0.88077900       0.72581800       0.49205100
   213  C          0.59828180       0.81983000       0.85893000
   214  C          0.40171820       0.18017000       0.35893000
   215  C          0.09828180       0.18017000       0.85893000
   216  C          0.90171820       0.81983000       0.35893000
   217  H          0.63867900       0.85104500       0.86352400
   218  H          0.36132100       0.14895500       0.36352400
   219  H          0.13867900       0.14895500       0.86352400
   220  H          0.86132100       0.85104500       0.36352400
   221  C          0.54996180       0.84803000       0.77463000
   222  C          0.45003820       0.15197000       0.27463000
   223  C          0.04996180       0.15197000       0.77463000
   224  C          0.95003820       0.84803000       0.27463000
   225  H          0.55840300       0.89774500       0.72251800
   226  H          0.44159700       0.10225500       0.22251800
   227  H          0.05840300       0.10225500       0.72251800
   228  H          0.94159700       0.89774500       0.22251800
   229  C          0.48926170       0.80263000       0.76733000
   230  C          0.51073830       0.19737000       0.26733000
   231  C          0.98926170       0.19737000       0.76733000
   232  C          0.01073830       0.80263000       0.26733000
   233  C          0.43989170       0.82853000       0.67743000
   234  C          0.56010830       0.17147000       0.17743000
   235  C          0.93989170       0.17147000       0.67743000
   236  C          0.06010830       0.82853000       0.17743000
   237  C          0.39887170       0.84643000       0.59943000
   238  C          0.60112830       0.15357000       0.09943000
   239  C          0.89887170       0.15357000       0.59943000
   240  C          0.10112830       0.84643000       0.09943000
   241  C          0.35189170       0.86533000       0.50133000
   242  C          0.64810830       0.13467000       0.00133000
   243  C          0.85189170       0.13467000       0.50133000
   244  C          0.14810830       0.86533000       0.00133000
   245  C          0.36415180       0.93612000       0.41653000
   246  C          0.63584820       0.06388000       0.91653000
   247  C          0.86415180       0.06388000       0.41653000
   248  C          0.13584820       0.93612000       0.91653000
   249  H          0.40216200       0.97227000       0.42498100
   250  H          0.59783800       0.02773000       0.92498100
   251  H          0.90216200       0.02773000       0.42498100
   252  H          0.09783800       0.97227000       0.92498100
   253  C          0.31988170       0.95303000       0.31933000
   254  C          0.68011830       0.04697000       0.81933000
   255  C          0.81988170       0.04697000       0.31933000
   256  C          0.18011830       0.95303000       0.81933000
   257  H          0.32826500       0.00052900       0.26359400
   258  H          0.67173500      -0.00052900       0.76359400
   259  H          0.82826500      -0.00052900       0.26359400
   260  H          0.17173500       0.00052900       0.76359400
   261  C          0.26352170       0.89922000       0.30543000
   262  C          0.73647830       0.10078000       0.80543000
   263  C          0.76352170       0.10078000       0.30543000
   264  C          0.23647830       0.89922000       0.80543000
   265  H          0.23418700       0.91039100       0.24015500
   266  H          0.76581300       0.08960900       0.74015500
   267  H          0.73418700       0.08960900       0.24015500
   268  H          0.26581300       0.91039100       0.74015500
   269  C          0.25061190       0.82852000       0.38863000
   270  C          0.74938810       0.17148000       0.88863000
   271  C          0.75061190       0.17148000       0.38863000
   272  C          0.24938810       0.82852000       0.88863000
   273  H          0.21296100       0.79193500       0.37790000
   274  H          0.78703900       0.20806500       0.87790000
   275  H          0.71296100       0.20806500       0.37790000
   276  H          0.28703900       0.79193500       0.87790000
   277  C          0.29368170       0.81152000       0.48873000
   278  C          0.70631830       0.18848000      -0.01127000
   279  C          0.79368170       0.18848000       0.48873000
   280  C          0.20631830       0.81152000      -0.01127000
   281  C          0.27931160       0.73782000       0.57403000
   282  C          0.72068840       0.26218000       0.07403000
   283  C          0.77931160       0.26218000       0.57403000
   284  C          0.22068840       0.73782000       0.07403000
   285  C          0.26766170       0.67742000       0.64623000
   286  C          0.73233830       0.32258000       0.14623000
   287  C          0.76766170       0.32258000       0.64623000
   288  C          0.23233830       0.67742000       0.14623000
