data_TEGVAF01
_symmetry_space_group_name_H-M    'P1'
_symmetry_Int_Tables_number       1
loop_
_symmetry_equiv_pos_site_id
_symmetry_equiv_pos_as_xyz
1 x,y,z
_cell_length_a                   14.58918
_cell_length_b                   13.25215
_cell_length_c                   9.23511
_cell_angle_alpha                90.0
_cell_angle_beta                 91.952
_cell_angle_gamma                90.0
loop_
_atom_site_label
_atom_site_type_symbol
_atom_site_fract_x
_atom_site_fract_y
_atom_site_fract_z
     1  O          0.70655130       0.80187150       0.12112000
     2  O          0.29344870       0.30187150       0.37888000
     3  O          0.29344870       0.19812850       0.87888000
     4  O          0.70655130       0.69812850       0.62112000
     5  C          0.66484170       0.97152000       0.04743000
     6  C          0.33515830       0.47152000       0.45257000
     7  C          0.33515830       0.02848000       0.95257000
     8  C          0.66484170       0.52848000       0.54743000
     9  C          0.71728170       0.90432000       0.13083000
    10  C          0.28271830       0.40432000       0.36917000
    11  C          0.28271830       0.09568000       0.86917000
    12  C          0.71728170       0.59568000       0.63083000
    13  C          0.59798180       0.93382000       0.93917000
    14  C          0.40201820       0.43382000       0.56083000
    15  C          0.40201820       0.06618000       0.06083000
    16  C          0.59798180       0.56618000       0.43917000
    17  O          0.55565140      -0.01022840       0.85528000
    18  O          0.44434860       0.48977160       0.64472000
    19  O          0.44434860       0.01022840       0.14472000
    20  O          0.55565140       0.51022840       0.35528000
    21  C          0.64215180       0.76312000       0.02563000
    22  C          0.35784820       0.26312000       0.47437000
    23  C          0.35784820       0.23688000       0.97437000
    24  C          0.64215180       0.73688000       0.52563000
    25  O          0.01333140       0.12630180       0.53292000
    26  O          0.98666860       0.62630180       0.96708000
    27  O          0.98666860       0.87369820       0.46708000
    28  O          0.01333140       0.37369820       0.03292000
    29  N          0.86997160       0.07602000       0.33883000
    30  N          0.13002840       0.57602000       0.16117000
    31  N          0.13002840       0.92398000       0.66117000
    32  N          0.86997160       0.42398000       0.83883000
    33  C          0.58811180       0.82342000       0.93487000
    34  C          0.41188820       0.32342000       0.56513000
    35  C          0.41188820       0.17658000       0.06513000
    36  C          0.58811180       0.67658000       0.43487000
    37  C          0.95629190       0.10032000       0.28683000
    38  C          0.04370810       0.60032000       0.21317000
    39  C          0.04370810       0.89968000       0.71317000
    40  C          0.95629190       0.39968000       0.78683000
    41  C          0.78518190       0.93803000       0.22693000
    42  C          0.21481810       0.43803000       0.27307000
    43  C          0.21481810       0.06197000       0.77307000
    44  C          0.78518190       0.56197000       0.72693000
    45  C          0.92412000       0.12172000       0.57803000
    46  C          0.07588000       0.62172000       0.92197000
    47  C          0.07588000       0.87828000       0.42197000
    48  C          0.92412000       0.37828000       0.07803000
    49  C          0.85194190       0.09502000       0.48393000
    50  C          0.14805810       0.59502000       0.01607000
    51  C          0.14805810       0.90498000       0.51607000
    52  C          0.85194190       0.40498000       0.98393000
    53  C          0.67942000       0.07493000       0.06743000
    54  C          0.32058000       0.57493000       0.43257000
    55  C          0.32058000       0.92507000       0.93257000
    56  C          0.67942000       0.42507000       0.56743000
    57  C          0.97682000       0.09882000       0.14193000
    58  C          0.02318000       0.59882000       0.35807000
    59  C          0.02318000       0.90118000       0.85807000
    60  C          0.97682000       0.40118000       0.64193000
    61  C          0.79889190       0.04023000       0.24153000
    62  C          0.20110810       0.54023000       0.25847000
    63  C          0.20110810       0.95977000       0.75847000
    64  C          0.79889190       0.45977000       0.74153000
    65  C          0.02620190       0.12782000       0.38603000
    66  C          0.97379810       0.62782000       0.11397000
    67  C          0.97379810       0.87218000       0.61397000
    68  C          0.02620190       0.37218000       0.88603000
    69  C          0.63422000       0.65843000       0.02304000
    70  C          0.36578000       0.15843000       0.47696000
    71  C          0.36578000       0.34157000       0.97696000
    72  C          0.63422000       0.84157000       0.52304000
    73  C          0.76552000       0.08792000       0.53933000
    74  C          0.23448000       0.58792000       0.96067000
    75  C          0.23448000       0.91208000       0.46067000
    76  C          0.76552000       0.41208000       0.03933000
    77  C          0.82352000       0.13143000       0.77563000
    78  C          0.17648000       0.63143000       0.72437000
    79  C          0.17648000       0.86857000       0.22437000
    80  C          0.82352000       0.36857000       0.27563000
    81  C          0.52502000       0.77623000       0.83956000
    82  C          0.47498000       0.27623000       0.66044000
    83  C          0.47498000       0.22377000       0.16044000
    84  C          0.52502000       0.72377000       0.33956000
    85  C          0.91022000       0.14032000       0.72123000
    86  C          0.08978000       0.64032000       0.77877000
    87  C          0.08978000       0.85968000       0.27877000
    88  C          0.91022000       0.35968000       0.22123000
    89  C          0.74552000       0.10963000       0.16393000
    90  C          0.25448000       0.60963000       0.33607000
    91  C          0.25448000       0.89037000       0.83607000
    92  C          0.74552000       0.39037000       0.66393000
    93  C          0.06342000       0.12443000       0.09674000
    94  C          0.93658000       0.62443000       0.40326000
    95  C          0.93658000       0.87557000       0.90326000
    96  C          0.06342000       0.37557000       0.59674000
    97  C          0.11152000       0.15442000       0.34094000
    98  C          0.88848000       0.65442000       0.15906000
    99  C          0.88848000       0.84558000       0.65906000
   100  C          0.11152000       0.34558000       0.84094000
   101  C          0.51782000       0.67293000       0.83646000
   102  C          0.48218000       0.17293000       0.66354000
   103  C          0.48218000       0.32707000       0.16354000
   104  C          0.51782000       0.82707000       0.33646000
   105  C          0.75162000       0.10443000       0.68473000
   106  C          0.24838000       0.60443000       0.81527000
   107  C          0.24838000       0.89557000       0.31527000
   108  C          0.75162000       0.39557000       0.18473000
   109  C          0.57262000       0.61403000       0.92826000
   110  C          0.42738000       0.11403000       0.57174000
   111  C          0.42738000       0.38597000       0.07174000
   112  C          0.57262000       0.88597000       0.42826000
   113  C          0.13072000       0.15283000       0.19604000
   114  C          0.86928000       0.65283000       0.30396000
   115  C          0.86928000       0.84717000       0.80396000
   116  C          0.13072000       0.34717000       0.69604000
   117  H          0.81320000       0.14320000       0.87930000
   118  H          0.18680000       0.64320000       0.62070000
   119  H          0.18680000       0.85680000       0.12070000
   120  H          0.81320000       0.35680000       0.37930000
   121  H          0.96220000       0.16020000       0.78730000
   122  H          0.03780000       0.66020000       0.71270000
   123  H          0.03780000       0.83980000       0.21270000
   124  H          0.96220000       0.33980000       0.28730000
   125  H          0.19120000       0.16920000       0.16130000
   126  H          0.80880000       0.66920000       0.33870000
   127  H          0.80880000       0.83080000       0.83870000
   128  H          0.19120000       0.33080000       0.66130000
   129  H          0.71471800       0.07020000       0.47730000
   130  H          0.28528200       0.57020000       0.02270000
   131  H          0.28528200       0.92980000       0.52270000
   132  H          0.71471800       0.42980000       0.97730000
   133  H          0.92941800       0.08231900       0.07430000
   134  H          0.07058200       0.58231900       0.42570000
   135  H          0.07058200       0.91768100       0.92570000
   136  H          0.92941800       0.41768100       0.57430000
   137  H          0.82251800       0.88820000       0.28530000
   138  H          0.17748200       0.38820000       0.21470000
   139  H          0.17748200       0.11180000       0.71470000
   140  H          0.82251800       0.61180000       0.78530000
   141  H          0.64191800       0.12020000       0.01530000
   142  H          0.35808200       0.62020000       0.48470000
   143  H          0.35808200       0.87980000       0.98470000
   144  H          0.64191800       0.37980000       0.51530000
   145  H          0.48620000       0.82320000       0.78170000
   146  H          0.51380000       0.32320000       0.71830000
   147  H          0.51380000       0.17680000       0.21830000
   148  H          0.48620000       0.67680000       0.28170000
   149  H          0.67020000       0.61920000       0.09030000
   150  H          0.32980000       0.11920000       0.40970000
   151  H          0.32980000       0.38080000       0.90970000
   152  H          0.67020000       0.88080000       0.59030000
   153  H          0.69120000       0.09720000       0.71730000
   154  H          0.30880000       0.59720000       0.78270000
   155  H          0.30880000       0.90280000       0.28270000
   156  H          0.69120000       0.40280000       0.21730000
   157  H          0.15720000       0.17120000       0.41630000
   158  H          0.84280000       0.67120000       0.08370000
   159  H          0.84280000       0.82880000       0.58370000
   160  H          0.15720000       0.32880000       0.91630000
   161  H          0.07320000       0.12320000      -0.00930000
   162  H          0.92680000       0.62320000       0.50930000
   163  H          0.92680000       0.87680000       0.00930000
   164  H          0.07320000       0.37680000       0.49070000
   165  H          0.47730000       0.64130000       0.77060000
   166  H          0.52270000       0.14130000       0.72940000
   167  H          0.52270000       0.35870000       0.22940000
   168  H          0.47730000       0.85870000       0.27060000
   169  H          0.57020000       0.54230000       0.92270000
   170  H          0.42980000       0.04230000       0.57730000
   171  H          0.42980000       0.45770000       0.07730000
   172  H          0.57020000       0.95770000       0.42270000
   173  H          0.75620000       0.17830000       0.17430000
   174  H          0.24380000       0.67830000       0.32570000
   175  H          0.24380000       0.82170000       0.82570000
   176  H          0.75620000       0.32170000       0.67430000
