data_TEGVAF02
_symmetry_space_group_name_H-M    'P1'
_symmetry_Int_Tables_number       1
loop_
_symmetry_equiv_pos_site_id
_symmetry_equiv_pos_as_xyz
1 x,y,z
_cell_length_a                   16.562415
_cell_length_b                   7.17307
_cell_length_c                   15.019414
_cell_angle_alpha                90.0
_cell_angle_beta                 98.2372
_cell_angle_gamma                90.0
loop_
_atom_site_label
_atom_site_type_symbol
_atom_site_fract_x
_atom_site_fract_y
_atom_site_fract_z
     1  C          0.37418900       0.78772190       0.90534900
     2  C          0.62581100       0.28772190       0.59465100
     3  C          0.62581100       0.21227810       0.09465100
     4  C          0.37418900       0.71227810       0.40534900
     5  C          0.32639100       0.76422000       0.82166100
     6  C          0.67360900       0.26422000       0.67833900
     7  C          0.67360900       0.23578000       0.17833900
     8  C          0.32639100       0.73578000       0.32166100
     9  C          0.24371900       0.79462000       0.81497900
    10  C          0.75628100       0.29462000       0.68502100
    11  C          0.75628100       0.20538000       0.18502100
    12  C          0.24371900       0.70538000       0.31497900
    13  C          0.20786100       0.85092000       0.88947110
    14  C          0.79213900       0.35092000       0.61052890
    15  C          0.79213900       0.14908000       0.11052890
    16  C          0.20786100       0.64908000       0.38947110
    17  C          0.25563100       0.87302000       0.97148110
    18  C          0.74436900       0.37302000       0.52851890
    19  C          0.74436900       0.12698000       0.02851890
    20  C          0.25563100       0.62698000       0.47148110
    21  C          0.33981900       0.84085190       0.98082900
    22  C          0.66018100       0.34085190       0.51917100
    23  C          0.66018100       0.15914810       0.01917100
    24  C          0.33981900       0.65914810       0.48082900
    25  C          0.39130100       0.85632000       0.06906100
    26  C          0.60869900       0.35632000       0.43093900
    27  C          0.60869900       0.14368000       0.93093900
    28  C          0.39130100       0.64368000       0.56906100
    29  C          0.47534100       0.79172000       0.07029110
    30  C          0.52465900       0.29172000       0.42970890
    31  C          0.52465900       0.20828000       0.92970890
    32  C          0.47534100       0.70828000       0.57029110
    33  C          0.52937130       0.77272000       0.15151130
    34  C          0.47062870       0.27272000       0.34848870
    35  C          0.47062870       0.22728000       0.84848870
    36  C          0.52937130       0.72728000       0.65151130
    37  C          0.60764130       0.70963000       0.15065160
    38  C          0.39235870       0.20963000       0.34934840
    39  C          0.39235870       0.29037000       0.84934840
    40  C          0.60764130       0.79037000       0.65065160
    41  C          0.63491120       0.66943000       0.06950170
    42  C          0.36508880       0.16943000       0.43049830
    43  C          0.36508880       0.33057000       0.93049830
    44  C          0.63491120       0.83057000       0.56950170
    45  C          0.58393110       0.68622000       0.98917140
    46  C          0.41606890       0.18622000       0.51082860
    47  C          0.41606890       0.31378000       0.01082860
    48  C          0.58393110       0.81378000       0.48917140
    49  C          0.50388100       0.74432000      -0.00926890
    50  C          0.49611900       0.24432000       0.50926890
    51  C          0.49611900       0.25568000       0.00926890
    52  C          0.50388100       0.75568000       0.49073110
    53  C          0.18505900       0.90002000       0.66319900
    54  C          0.81494100       0.40002000       0.83680100
    55  C          0.81494100       0.09998000       0.33680100
    56  C          0.18505900       0.59998000       0.16319900
    57  C          0.23313100       0.05912000       0.66908100
    58  C          0.76686900       0.55912000       0.83091900
    59  C          0.76686900       0.94088000       0.33091900
    60  C          0.23313100       0.44088000       0.16908100
    61  C          0.22289110       0.19332000       0.60204110
    62  C          0.77710890       0.69332000       0.89795890
    63  C          0.77710890       0.80668000       0.39795890
    64  C          0.22289110       0.30668000       0.10204110
    65  C          0.16405110       0.16942000       0.52757110
    66  C          0.83594890       0.66942000       0.97242890
    67  C          0.83594890       0.83058000       0.47242890
    68  C          0.16405110       0.33058000       0.02757110
    69  C          0.11567100       0.01132000       0.52053100
    70  C          0.88432900       0.51132000       0.97946900
    71  C          0.88432900      -0.01132000       0.47946900
    72  C          0.11567100       0.48868000       0.02053100
    73  C          0.12611900       0.87852000       0.58733900
    74  C          0.87388100       0.37852000       0.91266100
    75  C          0.87388100       0.12148000       0.41266100
    76  C          0.12611900       0.62148000       0.08733900
    77  C          0.08338900       0.59092000       0.64333900
    78  C          0.91661100       0.09092000       0.85666100
    79  C          0.91661100       0.40908000       0.35666100
    80  C          0.08338900       0.90908000       0.14333900
    81  C          0.03132100       0.44052000       0.63102100
    82  C          0.96867900       0.94052000       0.86897900
    83  C          0.96867900       0.55948000       0.36897900
    84  C          0.03132100       0.05948000       0.13102100
    85  C          0.03494100       0.30222000       0.69603110
    86  C          0.96505900       0.80222000       0.80396890
    87  C          0.96505900       0.69778000       0.30396890
    88  C          0.03494100       0.19778000       0.19603110
    89  C          0.09135100       0.31662000       0.77293110
    90  C          0.90864900       0.81662000       0.72706890
    91  C          0.90864900       0.68338000       0.22706890
    92  C          0.09135100       0.18338000       0.27293110
    93  C          0.14428100       0.46762000       0.78520100
    94  C          0.85571900       0.96762000       0.71479900
    95  C          0.85571900       0.53238000       0.21479900
    96  C          0.14428100       0.03238000       0.28520100
    97  C          0.14072900       0.60792000       0.72084900
    98  C          0.85927100       0.10792000       0.77915100
    99  C          0.85927100       0.39208000       0.27915100
   100  C          0.14072900       0.89208000       0.22084900
   101  H          0.35081000       0.72220000       0.77191200
   102  H          0.64919000       0.22220000       0.72808800
   103  H          0.64919000       0.27780000       0.22808800
   104  H          0.35081000       0.77780000       0.27191200
   105  H          0.14931100       0.87120000       0.88301100
   106  H          0.85068900       0.37120000       0.61698900
   107  H          0.85068900       0.12880000       0.11698900
   108  H          0.14931100       0.62880000       0.38301100
   109  H          0.23211100       0.91030000       0.02371200
   110  H          0.76788900       0.41030000       0.47628800
   111  H          0.76788900       0.08970000       0.97628800
   112  H          0.23211100       0.58970000       0.52371200
   113  H          0.50891200       0.80530000       0.20641300
   114  H          0.49108800       0.30530000       0.29358700
   115  H          0.49108800       0.19470000       0.79358700
   116  H          0.50891200       0.69470000       0.70641300
   117  H          0.64091400       0.69030000       0.20551500
   118  H          0.35908600       0.19030000       0.29448500
   119  H          0.35908600       0.30970000       0.79448500
   120  H          0.64091400       0.80970000       0.70551500
   121  H          0.69041400       0.62930000       0.06711400
   122  H          0.30958600       0.12930000       0.43288600
   123  H          0.30958600       0.37070000       0.93288600
   124  H          0.69041400       0.87070000       0.56711400
   125  H          0.60281300       0.65630000       0.92921500
   126  H          0.39718700       0.15630000       0.57078500
   127  H          0.39718700       0.34370000       0.07078500
   128  H          0.60281300       0.84370000       0.42921500
   129  H          0.27411100       0.07620000       0.72051200
   130  H          0.72588900       0.57620000       0.77948800
   131  H          0.72588900       0.92380000       0.27948800
   132  H          0.27411100       0.42380000       0.22051200
   133  H          0.25621200       0.30630000       0.60931300
   134  H          0.74378800       0.80630000       0.89068700
   135  H          0.74378800       0.69370000       0.39068700
   136  H          0.25621200       0.19370000       0.10931300
   137  H          0.15481100       0.26530000       0.48231200
   138  H          0.84518900       0.76530000       0.01768800
   139  H          0.84518900       0.73470000       0.51768800
   140  H          0.15481100       0.23470000       0.98231200
   141  H          0.07411100      -0.01070000       0.46991200
   142  H          0.92588900       0.48930000       0.03008800
   143  H          0.92588900       0.01070000       0.53008800
   144  H          0.07411100       0.51070000       0.96991200
   145  H         -0.00571000       0.43420000       0.57701200
   146  H          0.00571000       0.93420000       0.92298800
   147  H          0.00571000       0.56580000       0.42298800
   148  H         -0.00571000       0.06580000       0.07701200
   149  H         -0.00071200       0.19730000       0.68601200
   150  H          0.00071200       0.69730000       0.81398800
   151  H          0.00071200       0.80270000       0.31398800
   152  H         -0.00071200       0.30270000       0.18601200
   153  H          0.09561100       0.21830000       0.81711200
   154  H          0.90438900       0.71830000       0.68288800
   155  H          0.90438900       0.78170000       0.18288800
   156  H          0.09561100       0.28170000       0.31711200
   157  H          0.18371000       0.47920000       0.83891100
   158  H          0.81629000       0.97920000       0.66108900
   159  H          0.81629000       0.52080000       0.16108900
   160  H          0.18371000       0.02080000       0.33891100
   161  N          0.19282800       0.76336190       0.73055900
   162  N          0.80717200       0.26336190       0.76944100
   163  N          0.80717200       0.23663810       0.26944100
   164  N          0.19282800       0.73663810       0.23055900
   165  O          0.45545600       0.75060150       0.90848700
   166  O          0.54454400       0.25060150       0.59151300
   167  O          0.54454400       0.24939850       0.09151300
   168  O          0.45545600       0.74939850       0.40848700
   169  O          0.36487800       0.91663180       0.13588700
   170  O          0.63512200       0.41663180       0.36411300
   171  O          0.63512200       0.08336820       0.86411300
   172  O          0.36487800       0.58336820       0.63588700
   173  O          0.07651800       0.72261170       0.57511800
   174  O          0.92348200       0.22261170       0.92488200
   175  O          0.92348200       0.27738830       0.42488200
   176  O          0.07651800       0.77738830       0.07511800
