data_TEGVAF
_symmetry_space_group_name_H-M    'P1'
_symmetry_Int_Tables_number       1
loop_
_symmetry_equiv_pos_site_id
_symmetry_equiv_pos_as_xyz
1 x,y,z
_cell_length_a                   7.686412
_cell_length_b                   9.843715
_cell_length_c                   11.907418
_cell_angle_alpha                81.3613
_cell_angle_beta                 88.4753
_cell_angle_gamma                89.0133
loop_
_atom_site_label
_atom_site_type_symbol
_atom_site_fract_x
_atom_site_fract_y
_atom_site_fract_z
     1  O          0.25173000       0.48812000       0.03679190
     2  O          0.74827000       0.51188000       0.96320810
     3  O          0.66793000       0.90828000       0.41873180
     4  O          0.33207000       0.09172000       0.58126820
     5  N          0.48043000       0.29682000       0.15782000
     6  N          0.51957000       0.70318000       0.84218000
     7  C          0.97024000       0.83497000       0.43683000
     8  C          0.02976000       0.16503000       0.56317000
     9  C          0.88684000       0.04023000       0.30193000
    10  C          0.11316000       0.95977000       0.69807000
    11  C          0.36424000       0.25343000       0.08123000
    12  C          0.63576000       0.74657000       0.91877000
    13  C          0.71444000       0.01543000       0.33653000
    14  C          0.28556000       0.98457000       0.66347000
    15  C          0.46884000       0.43193000       0.18123000
    16  C          0.53116000       0.56807000       0.81877000
    17  C          0.02814000       0.95017000       0.35163000
    18  C          0.97186000       0.04983000       0.64837000
    19  O          0.18193000       0.96848000       0.32472000
    20  O          0.81807000       0.03152000       0.67528000
    21  C          0.79514000       0.82027000       0.46763000
    22  C          0.20486000       0.17973000       0.53237000
    23  C          0.57824000       0.09823000       0.29013000
    24  C          0.42176000       0.90177000       0.70987000
    25  C          0.61704000       0.20793000       0.20723000
    26  C          0.38296000       0.79207000       0.79277000
    27  C          0.25124000       0.35083000       0.02243000
    28  C          0.74876000       0.64917000       0.97757000
    29  C          0.35284000       0.52493000       0.12223000
    30  C          0.64716000       0.47507000       0.87777000
    31  C          0.92174000       0.15243000       0.21823000
    32  C          0.07826000       0.84757000       0.78177000
    33  C          0.78914000       0.23593000       0.17033000
    34  C          0.21086000       0.76407000       0.82967000
    35  C          0.33355000       0.65663000       0.14503000
    36  C          0.66645000       0.34337000       0.85497000
    37  C          0.73705000       0.71516000       0.54923000
    38  C          0.26295000       0.28484000       0.45077000
    39  C          0.23895000       0.08324000       0.98147000
    40  C          0.76105000       0.91676000       0.01853000
    41  C          0.12905000       0.18054000       0.92487000
    42  C          0.87095000       0.81946000       0.07513000
    43  C          0.13514000       0.31484000       0.94677000
    44  C          0.86486000       0.68516000       0.05323000
    45  C          0.35504000       0.12013000       0.05923000
    46  C          0.64496000       0.87987000       0.94077000
    47  C          0.08785000       0.73656000       0.49093000
    48  C          0.91215000       0.26344000       0.50907000
    49  C          0.56445000       0.47704000       0.26493000
    50  C          0.43555000       0.52296000       0.73507000
    51  C          0.42995000       0.70124000       0.22883000
    52  C          0.57005000       0.29876000       0.77117000
    53  C          0.02975000       0.63026000       0.57023000
    54  C          0.97025000       0.36974000       0.42977000
    55  C          0.85465000       0.62036000       0.59923000
    56  C          0.14535000       0.37964000       0.40077000
    57  C          0.54485000       0.61034000       0.28864000
    58  C          0.45515000       0.38966000       0.71136000
    59  H          0.46340000       0.08730000       0.31830000
    60  H          0.53660000       0.91270000       0.68170000
    61  H          0.81240000       0.32330000       0.11730000
    62  H          0.18760000       0.67670000       0.88270000
    63  H          0.03740000       0.16930000       0.19930000
    64  H          0.96260000       0.83070000       0.80070000
    65  H          0.20640000       0.75170000       0.46920000
    66  H          0.79360000       0.24830000       0.53080000
    67  H          0.61840000       0.70370000       0.57020000
    68  H          0.38160000       0.29630000       0.42980000
    69  H          0.43040000       0.05130000       0.09720000
    70  H          0.56960000       0.94870000       0.90280000
    71  H          0.23140000      -0.00930000       0.96670000
    72  H          0.76860000       0.00930000       0.03330000
    73  H          0.06940000       0.38230000       0.90180000
    74  H          0.93060000       0.61770000       0.09820000
    75  H          0.64040000       0.41430000       0.30920000
    76  H          0.35960000       0.58570000       0.69080000
    77  H          0.81940000       0.54870000       0.66020000
    78  H          0.18060000       0.45130000       0.33980000
    79  H          0.11850000       0.56870000       0.60930000
    80  H          0.88150000       0.43130000       0.39070000
    81  H          0.04240000       0.15830000       0.86970000
    82  H          0.95760000       0.84170000       0.13030000
    83  H          0.26040000       0.71330000       0.09930000
    84  H          0.73960000       0.28670000       0.90070000
    85  H          0.61640000       0.63930000       0.34830000
    86  H          0.38360000       0.36070000       0.65170000
    87  H          0.42440000       0.78630000       0.23830000
    88  H          0.57560000       0.21370000       0.76170000
