data_TEHNID02
_symmetry_space_group_name_H-M    'P1'
_symmetry_Int_Tables_number       1
loop_
_symmetry_equiv_pos_site_id
_symmetry_equiv_pos_as_xyz
1 x,y,z
_cell_length_a                   9.60554
_cell_length_b                   7.71433
_cell_length_c                   18.86818
_cell_angle_alpha                90.0
_cell_angle_beta                 93.5764
_cell_angle_gamma                90.0
loop_
_atom_site_label
_atom_site_type_symbol
_atom_site_fract_x
_atom_site_fract_y
_atom_site_fract_z
     1  Br         0.81680500       0.85437600       0.48725300
     2  Br         0.68319500       0.35437600       0.01274700
     3  Br         0.18319500       0.14562400       0.51274700
     4  Br         0.31680500       0.64562400       0.98725300
     5  O          0.65794000       0.91985000       0.62302000
     6  O          0.84206000       0.41985000       0.87698000
     7  O          0.34206000       0.08015000       0.37698000
     8  O          0.15794000       0.58015000       0.12302000
     9  H          0.69250000       0.83470000       0.62030000
    10  H          0.80750000       0.33470000       0.87970000
    11  H          0.30750000       0.16530000       0.37970000
    12  H          0.19250000       0.66530000       0.12030000
    13  O          0.60804000       0.79664000       0.34262000
    14  O          0.89196000       0.29664000       0.15738000
    15  O          0.39196000       0.20336000       0.65738000
    16  O          0.10804000       0.70336000       0.84262000
    17  O          0.64124000       0.08214000       0.32723180
    18  O          0.85876000       0.58214000       0.17276820
    19  O          0.35876000       0.91786000       0.67276820
    20  O          0.14124000       0.41786000       0.82723180
    21  C          0.58405000       0.95496000       0.56183000
    22  C          0.91595000       0.45496000       0.93817000
    23  C          0.41595000       0.04504000       0.43817000
    24  C          0.08405000       0.54504000       0.06183000
    25  C          0.63185000       0.93436000       0.49423000
    26  C          0.86815000       0.43436000       0.00577000
    27  C          0.36815000       0.06564000       0.50577000
    28  C          0.13185000       0.56564000      -0.00577000
    29  C          0.55135000       0.97755000       0.43423000
    30  C          0.94865000       0.47755000       0.06577000
    31  C          0.44865000       0.02245000       0.56577000
    32  C          0.05135000       0.52245000       0.93423000
    33  C          0.60485000       0.96036000       0.36193000
    34  C          0.89515000       0.46036000       0.13807000
    35  C          0.39515000       0.03964000       0.63807000
    36  C          0.10485000       0.53964000       0.86193000
    37  C          0.65936000       0.75387000       0.27423000
    38  C          0.84064000       0.25387000       0.22577000
    39  C          0.34064000       0.24613000       0.72577000
    40  C          0.15936000       0.74613000       0.77423000
    41  H          0.71900000       0.64930000       0.27860000
    42  H          0.78100000       0.14930000       0.22140000
    43  H          0.28100000       0.35070000       0.72140000
    44  H          0.21900000       0.85070000       0.77860000
    45  H          0.71640000       0.85070000       0.25740000
    46  H          0.78360000       0.35070000       0.24260000
    47  H          0.28360000       0.14930000       0.74260000
    48  H          0.21640000       0.64930000       0.75740000
    49  C          0.54096000       0.72171000       0.22273000
    50  C          0.95904000       0.22171000       0.27727000
    51  C          0.45904000       0.27829000       0.77727000
    52  C          0.04096000       0.77829000       0.72273000
    53  H          0.57570000       0.68740000       0.17710000
    54  H          0.92430000       0.18740000       0.32290000
    55  H          0.42430000       0.31260000       0.82290000
    56  H          0.07570000       0.81260000       0.67710000
    57  H          0.48510000       0.82760000       0.21650000
    58  H          0.01490000       0.32760000       0.28350000
    59  H          0.51490000       0.17240000       0.78350000
    60  H         -0.01490000       0.67240000       0.71650000
    61  H          0.48280000       0.62860000       0.24030000
    62  H          0.01720000       0.12860000       0.25970000
    63  H          0.51720000       0.37140000       0.75970000
    64  H          0.98280000       0.87140000       0.74030000
    65  H          0.30850000       0.16670000       0.38030000
    66  H          0.19150000       0.66670000       0.11970000
    67  H          0.69150000       0.83330000       0.61970000
    68  H          0.80850000       0.33330000       0.88030000
    69  Br         0.80916500       0.35264600       0.46891300
    70  Br         0.69083500       0.85264600       0.03108700
    71  Br         0.19083500       0.64735400       0.53108700
    72  Br         0.30916500       0.14735400       0.96891300
    73  O          0.44664000       0.59164000       0.63734180
    74  O          0.05336000       0.09164000       0.86265820
    75  O          0.55336000       0.40836000       0.36265820
    76  O          0.94664000       0.90836000       0.13734180
    77  H          0.40750000       0.68060000       0.63930000
    78  H          0.09250000       0.18060000       0.86070000
    79  H          0.59250000       0.31940000       0.36070000
    80  H          0.90750000       0.81940000       0.13930000
    81  O          0.76984000       0.59214000       0.64134190
    82  O          0.73016000       0.09214000       0.85865810
    83  O          0.23016000       0.40786000       0.35865810
    84  O          0.26984000       0.90786000       0.14134190
    85  O          0.71973000       0.30884000       0.63960180
    86  O          0.78027000       0.80884000       0.86039820
    87  O          0.28027000       0.69116000       0.36039820
    88  O          0.21973000       0.19116000       0.13960180
    89  C          0.46975000       0.55126000       0.56913000
    90  C          0.03025000       0.05126000       0.93087000
    91  C          0.53025000       0.44874000       0.43087000
    92  C          0.96975000       0.94874000       0.06913000
    93  C          0.62925000       0.43416000       0.48743000
    94  C          0.87075000       0.93416000       0.01257000
    95  C          0.37075000       0.56584000       0.51257000
    96  C          0.12925000       0.06584000       0.98743000
    97  C          0.60055000       0.48296000       0.55562000
    98  C          0.89945000      -0.01704000       0.94438000
    99  C          0.39945000       0.51704000       0.44438000
   100  C          0.10055000       0.01704000       0.05562000
   101  C          0.70625000       0.46986000       0.61593000
   102  C          0.79375000       0.96986000       0.88407000
   103  C          0.29375000       0.53014000       0.38407000
   104  C          0.20625000       0.03014000       0.11593000
   105  C          0.82275000       0.27617000       0.69713000
   106  C          0.67725000       0.77617000       0.80287000
   107  C          0.17725000       0.72383000       0.30287000
   108  C          0.32275000       0.22383000       0.19713000
   109  H          0.79450000       0.17450000       0.72480000
   110  H          0.70550000       0.67450000       0.77520000
   111  H          0.20550000       0.82550000       0.27520000
   112  H          0.29450000       0.32550000       0.22480000
   113  H          0.82950000       0.37760000       0.72920000
   114  H          0.67050000       0.87760000       0.77080000
   115  H          0.17050000       0.62240000       0.27080000
   116  H          0.32950000       0.12240000       0.22920000
   117  C          0.96215000       0.24238000       0.66763000
   118  C          0.53785000       0.74238000       0.83237000
   119  C          0.03785000       0.75762000       0.33237000
   120  C          0.46215000       0.25762000       0.16763000
   121  H          0.03030000       0.21250000       0.70650000
   122  H          0.46970000       0.71250000       0.79350000
   123  H          0.96970000       0.78750000       0.29350000
   124  H          0.53030000       0.28750000       0.20650000
   125  H         -0.00680000       0.34640000       0.64340000
   126  H          0.50680000       0.84640000       0.85660000
   127  H          0.00680000       0.65360000       0.35660000
   128  H          0.49320000       0.15360000       0.14340000
   129  H          0.95380000       0.14580000       0.63380000
   130  H          0.54620000       0.64580000       0.86620000
   131  H          0.04620000       0.85420000       0.36620000
   132  H          0.45380000       0.35420000       0.13380000
   133  H          0.59350000       0.32060000       0.36130000
   134  H          0.90650000       0.82060000       0.13870000
   135  H          0.40650000       0.67940000       0.63870000
   136  H          0.09350000       0.17940000       0.86130000
