data_TEHNID
_symmetry_space_group_name_H-M    'P1'
_symmetry_Int_Tables_number       1
loop_
_symmetry_equiv_pos_site_id
_symmetry_equiv_pos_as_xyz
1 x,y,z
_cell_length_a                   8.2671
_cell_length_b                   25.0374
_cell_length_c                   7.5261
_cell_angle_alpha                90.0
_cell_angle_beta                 113.441
_cell_angle_gamma                90.0
loop_
_atom_site_label
_atom_site_type_symbol
_atom_site_fract_x
_atom_site_fract_y
_atom_site_fract_z
     1  Br         0.78823500       0.94453786       0.89935400
     2  Br         0.21176500       0.44453786       0.60064600
     3  Br         0.21176500       0.05546214       0.10064600
     4  Br         0.78823500       0.55546214       0.39935400
     5  Br         0.06988500       0.69910800       0.95251400
     6  Br         0.93011500       0.19910800       0.54748600
     7  Br         0.93011500       0.30089200       0.04748600
     8  Br         0.06988500       0.80089200       0.45251400
     9  O          0.58277000       0.84700900       0.89526000
    10  O          0.41723000       0.34700900       0.60474000
    11  O          0.41723000       0.15299100       0.10474000
    12  O          0.58277000       0.65299100       0.39526000
    13  H          0.51368200       0.82202000       0.85251300
    14  H          0.48631800       0.32202000       0.64748700
    15  H          0.48631800       0.17798000       0.14748700
    16  H          0.51368200       0.67798000       0.35251300
    17  O          0.53106000       0.74764890       0.93025000
    18  O          0.46894000       0.24764890       0.56975000
    19  O          0.46894000       0.25235110       0.06975000
    20  O          0.53106000       0.75235110       0.43025000
    21  O          0.70747000       0.68772900       0.88516000
    22  O          0.29253000       0.18772900       0.61484000
    23  O          0.29253000       0.31227100       0.11484000
    24  O          0.70747000       0.81227100       0.38516000
    25  O          0.25393000       0.80191900       0.95646000
    26  O          0.74607000       0.30191900       0.54354000
    27  O          0.74607000       0.19808100       0.04354000
    28  O          0.25393000       0.69808100       0.45646000
    29  H          0.27512300       0.76987900       0.95831900
    30  H          0.72487700       0.26987900       0.54168100
    31  H          0.72487700       0.23012100       0.04168100
    32  H          0.27512300       0.73012100       0.45831900
    33  O          0.24694000       0.92950880       0.06174000
    34  O          0.75306000       0.42950880       0.43826000
    35  O          0.75306000       0.07049120       0.93826000
    36  O          0.24694000       0.57049120       0.56174000
    37  O          0.14164000       0.91205890       0.74316000
    38  O          0.85836000       0.41205890       0.75684000
    39  O          0.85836000       0.08794110       0.25684000
    40  O          0.14164000       0.58794110       0.24316000
    41  C          0.79836000       0.77812880       0.91836000
    42  C          0.20164000       0.27812880       0.58164000
    43  C          0.20164000       0.22187120       0.08164000
    44  C          0.79836000       0.72187120       0.41836000
    45  C          0.74446000       0.83197870       0.91065000
    46  C          0.25554000       0.33197870       0.58935000
    47  C          0.25554000       0.16802130       0.08935000
    48  C          0.74446000       0.66802130       0.41065000
    49  C          0.86076000       0.87287880       0.91295000
    50  C          0.13924000       0.37287880       0.58705000
    51  C          0.13924000       0.12712120       0.08705000
    52  C          0.86076000       0.62712120       0.41295000
    53  C          0.02794000       0.86181880       0.92375000
    54  C          0.97206000       0.36181880       0.57625000
    55  C          0.97206000       0.13818120       0.07625000
    56  C          0.02794000       0.63818120       0.42375000
    57  C          0.08484000       0.80901870       0.93765000
    58  C          0.91516000       0.30901870       0.56235000
    59  C          0.91516000       0.19098130       0.06235000
    60  C          0.08484000       0.69098130       0.43765000
    61  C          0.97076000       0.76767880       0.93206000
    62  C          0.02924000       0.26767880       0.56794000
    63  C          0.02924000       0.23232120       0.06794000
    64  C          0.97076000       0.73232120       0.43206000
    65  C          0.66686000       0.73662870       0.91105000
    66  C          0.33314000       0.23662870       0.58895000
    67  C          0.33314000       0.26337130       0.08895000
    68  C          0.66686000       0.76337130       0.41105000
    69  C          0.58395000       0.64511860       0.87974000
    70  C          0.41605000       0.14511860       0.62026000
    71  C          0.41605000       0.35488140       0.12026000
    72  C          0.58395000       0.85488140       0.37974000
    73  H          0.47165000       0.65041860       0.77164000
    74  H          0.52835000       0.15041860       0.72836000
    75  H          0.52835000       0.34958140       0.22836000
    76  H          0.47165000       0.84958140       0.27164000
    77  H          0.56425000       0.64497860      -0.00146000
    78  H          0.43575000       0.14497860       0.50146000
    79  H          0.43575000       0.35502140       0.00146000
    80  H          0.56425000       0.85502140       0.49854000
    81  C          0.66444000       0.59410850       0.85783000
    82  C          0.33556000       0.09410850       0.64217000
    83  C          0.33556000       0.40589150       0.14217000
    84  C          0.66444000       0.90589150       0.35783000
    85  H          0.58714000       0.56509850       0.85373000
    86  H          0.41286000       0.06509850       0.64627000
    87  H          0.41286000       0.43490150       0.14627000
    88  H          0.58714000       0.93490150       0.35373000
    89  H          0.77534000       0.58936850       0.96573000
    90  H          0.22466000       0.08936850       0.53427000
    91  H          0.22466000       0.41063150       0.03427000
    92  H          0.77534000       0.91063150       0.46573000
    93  H          0.68314000       0.59477850       0.73993000
    94  H          0.31686000       0.09477850       0.76007000
    95  H          0.31686000       0.40522150       0.26007000
    96  H          0.68314000       0.90522150       0.23993000
    97  C          0.15284000       0.90555870       0.92265000
    98  C          0.84716000       0.40555870       0.57735000
    99  C          0.84716000       0.09444130       0.07735000
   100  C          0.15284000       0.59444130       0.42265000
   101  C          0.25996000       0.95128000       0.71533000
   102  C          0.74004000       0.45128000       0.78467000
   103  C          0.74004000       0.04872000       0.28467000
   104  C          0.25996000       0.54872000       0.21533000
   105  H          0.38036000       0.94478000       0.80553000
   106  H          0.61964000       0.44478000       0.69447000
   107  H          0.61964000       0.05522000       0.19447000
   108  H          0.38036000       0.55522000       0.30553000
   109  H          0.22676000       0.98708000       0.73743000
   110  H          0.77324000       0.48708000       0.76257000
   111  H          0.77324000       0.01292000       0.26257000
   112  H          0.22676000       0.51292000       0.23743000
   113  C          0.24521000       0.94598000       0.51359000
   114  C          0.75479000       0.44598000      -0.01359000
   115  C          0.75479000       0.05402000       0.48641000
   116  C          0.24521000       0.55402000       0.01359000
   117  H          0.32191000       0.97138000       0.49069000
   118  H          0.67809000       0.47138000       0.00931000
   119  H          0.67809000       0.02862000       0.50931000
   120  H          0.32191000       0.52862000      -0.00931000
   121  H          0.12571000       0.95268000       0.42559000
   122  H          0.87429000       0.45268000       0.07441000
   123  H          0.87429000       0.04732000       0.57441000
   124  H          0.12571000       0.54732000       0.92559000
   125  H          0.27861000       0.91048000       0.49339000
   126  H          0.72139000       0.41048000       0.00661000
   127  H          0.72139000       0.08952000       0.50661000
   128  H          0.27861000       0.58952000      -0.00661000
