data_TEHNID01
_symmetry_space_group_name_H-M    'P1'
_symmetry_Int_Tables_number       1
loop_
_symmetry_equiv_pos_site_id
_symmetry_equiv_pos_as_xyz
1 x,y,z
_cell_length_a                   9.6221
_cell_length_b                   7.8531
_cell_length_c                   19.1033
_cell_angle_alpha                90.0
_cell_angle_beta                 93.111
_cell_angle_gamma                90.0
loop_
_atom_site_label
_atom_site_type_symbol
_atom_site_fract_x
_atom_site_fract_y
_atom_site_fract_z
     1  Br         0.80829700       0.35859100       0.46781400
     2  Br         0.69170300       0.85859100       0.03218600
     3  Br         0.19170300       0.64140900       0.53218600
     4  Br         0.30829700       0.14140900       0.96781400
     5  O          0.55285000       0.40765000       0.36422000
     6  O          0.94715000       0.90765000       0.13578000
     7  O          0.44715000       0.59235000       0.63578000
     8  O          0.05285000       0.09235000       0.86422000
     9  H          0.59845700       0.31945600       0.36353000
    10  H          0.90154300       0.81945600       0.13647000
    11  H          0.40154300       0.68054400       0.63647000
    12  H          0.09845700       0.18054400       0.86353000
    13  O          0.77085000       0.59485000       0.63742000
    14  O          0.72915000       0.09485000       0.86258000
    15  O          0.22915000       0.40515000       0.36258000
    16  O          0.27085000       0.90515000       0.13742000
    17  O          0.72144000       0.31665000       0.63752000
    18  O          0.77856000       0.81665000       0.86248000
    19  O          0.27856000       0.68335000       0.36248000
    20  O          0.22144000       0.18335000       0.13752000
    21  C          0.59966000       0.48494000       0.55453000
    22  C          0.90034000      -0.01506000       0.94547000
    23  C          0.40034000       0.51506000       0.44547000
    24  C          0.09966000       0.01506000       0.05453000
    25  C          0.52896000       0.44904000       0.43183000
    26  C          0.97104000       0.94904000       0.06817000
    27  C          0.47104000       0.55096000       0.56817000
    28  C          0.02896000       0.05096000       0.93183000
    29  C          0.62905000       0.43594000       0.48693000
    30  C          0.87095000       0.93594000       0.01307000
    31  C          0.37095000       0.56406000       0.51307000
    32  C          0.12905000       0.06406000       0.98693000
    33  C          0.70806000       0.47443000       0.61443000
    34  C          0.79194000       0.97443000       0.88557000
    35  C          0.29194000       0.52557000       0.38557000
    36  C          0.20806000       0.02557000       0.11443000
    37  C          0.82408000       0.28329000       0.69544000
    38  C          0.67592000       0.78329000       0.80456000
    39  C          0.17592000       0.71671000       0.30456000
    40  C          0.32408000       0.21671000       0.19544000
    41  H          0.79408000       0.18789000       0.72304000
    42  H          0.70592000       0.68789000       0.77696000
    43  H          0.20592000       0.81211000       0.27696000
    44  H          0.29408000       0.31211000       0.22304000
    45  H          0.83318000       0.38229000       0.72564000
    46  H          0.66682000       0.88229000       0.77436000
    47  H          0.16682000       0.61771000       0.27436000
    48  H          0.33318000       0.11771000       0.22564000
    49  C          0.95668000       0.24498700       0.66665000
    50  C          0.54332000       0.74498700       0.83335000
    51  C          0.04332000       0.75501300       0.33335000
    52  C          0.45668000       0.25501300       0.16665000
    53  H          0.02468000       0.22298700       0.70415000
    54  H          0.47532000       0.72298700       0.79585000
    55  H          0.97532000       0.77701300       0.29585000
    56  H          0.52468000       0.27701300       0.20415000
    57  H          0.94708000       0.14638700       0.63705000
    58  H          0.55292000       0.64638700       0.86295000
    59  H          0.05292000       0.85361300       0.36295000
    60  H          0.44708000       0.35361300       0.13705000
    61  H         -0.01402000       0.34018700       0.63965000
    62  H          0.51402000       0.84018700       0.86035000
    63  H          0.01402000       0.65981300       0.36035000
    64  H          0.48598000       0.15981300       0.13965000
    65  Br         0.18413700       0.14013900       0.51466400
    66  Br         0.31586300       0.64013900       0.98533600
    67  Br         0.81586300       0.85986100       0.48533600
    68  Br         0.68413700       0.35986100       0.01466400
    69  O          0.34044000       0.07935000       0.37952000
    70  O          0.15956000       0.57935000       0.12048000
    71  O          0.65956000       0.92065000       0.62048000
    72  O          0.84044000       0.42065000       0.87952000
    73  H          0.30244300       0.17232900       0.38281000
    74  H          0.19755700       0.67232900       0.11719000
    75  H          0.69755700       0.82767100       0.61719000
    76  H          0.80244300       0.32767100       0.88281000
    77  O          0.35835000       0.91525000       0.67072000
    78  O          0.14165000       0.41525000       0.82928000
    79  O          0.64165000       0.08475000       0.32928000
    80  O          0.85835000       0.58475000       0.17072000
    81  O          0.39585000       0.19415000       0.65842000
    82  O          0.10415000       0.69415000       0.84158000
    83  O          0.60415000       0.80585000       0.34158000
    84  O          0.89585000       0.30585000       0.15842000
    85  C          0.45026000       0.02046000       0.56583000
    86  C          0.04974000       0.52046000       0.93417000
    87  C          0.54974000       0.97954000       0.43417000
    88  C          0.95026000       0.47954000       0.06583000
    89  C          0.41745000       0.04536000       0.43963000
    90  C          0.08255000       0.54536000       0.06037000
    91  C          0.58255000       0.95464000       0.56037000
    92  C          0.91745000       0.45464000       0.93963000
    93  C          0.36755000       0.06396000       0.50683000
    94  C          0.13245000       0.56396000      -0.00683000
    95  C          0.63245000       0.93604000       0.49317000
    96  C          0.86755000       0.43604000       0.00683000
    97  C          0.39646000       0.03527000       0.63833000
    98  C          0.10354000       0.53527000       0.86167000
    99  C          0.60354000       0.96473000       0.36167000
   100  C          0.89646000       0.46473000       0.13833000
   101  C          0.34419000       0.23161000       0.72764000
   102  C          0.15581000       0.73161000       0.77236000
   103  C          0.65581000       0.76839000       0.27236000
   104  C          0.84419000       0.26839000       0.22764000
   105  H          0.29849000       0.13181000       0.74554000
   106  H          0.20151000       0.63181000       0.75446000
   107  H          0.70151000       0.86819000       0.25446000
   108  H          0.79849000       0.36819000       0.24554000
   109  H          0.27669000       0.32331000       0.72374000
   110  H          0.22331000       0.82331000       0.77626000
   111  H          0.72331000       0.67669000       0.27626000
   112  H          0.77669000       0.17669000       0.22374000
   113  C          0.45799000       0.28021600       0.77534000
   114  C          0.04201000       0.78021600       0.72466000
   115  C          0.54201000       0.71978400       0.22466000
   116  C          0.95799000       0.21978400       0.27534000
   117  H          0.42339000       0.30451600       0.82044000
   118  H          0.07661000       0.80451600       0.67956000
   119  H          0.57661000       0.69548400       0.17956000
   120  H          0.92339000       0.19548400       0.32044000
   121  H          0.52409000       0.18881600       0.77954000
   122  H          0.97591000       0.68881600       0.72046000
   123  H          0.47591000       0.81118400       0.22046000
   124  H          0.02409000       0.31118400       0.27954000
   125  H          0.50229000       0.37981600       0.75784000
   126  H         -0.00229000       0.87981600       0.74216000
   127  H          0.49771000       0.62018400       0.24216000
   128  H          0.00229000       0.12018400       0.25784000
