data_TEJKUO01
_symmetry_space_group_name_H-M    'P1'
_symmetry_Int_Tables_number       1
loop_
_symmetry_equiv_pos_site_id
_symmetry_equiv_pos_as_xyz
1 x,y,z
_cell_length_a                   8.271213
_cell_length_b                   7.972612
_cell_length_c                   13.3902
_cell_angle_alpha                90.0
_cell_angle_beta                 90.76212
_cell_angle_gamma                90.0
loop_
_atom_site_label
_atom_site_type_symbol
_atom_site_fract_x
_atom_site_fract_y
_atom_site_fract_z
     1  Br         0.75616600       0.76063500       0.88940300
     2  Br         0.74383400       0.26063500       0.61059700
     3  Br         0.24383400       0.23936500       0.11059700
     4  Br         0.25616600       0.73936500       0.38940300
     5  N          0.67674000       0.66364000       0.65423000
     6  N          0.82326000       0.16364000       0.84577000
     7  N          0.32326000       0.33636000       0.34577000
     8  N          0.17674000       0.83636000       0.15423000
     9  H          0.69700000       0.55120000       0.64520000
    10  H          0.80300000       0.05120000       0.85480000
    11  H          0.30300000       0.44880000       0.35480000
    12  H          0.19700000       0.94880000       0.14520000
    13  H          0.69970000       0.68790000       0.72000000
    14  H          0.80030000       0.18790000       0.78000000
    15  H          0.30030000       0.31210000       0.28000000
    16  H          0.19970000       0.81210000       0.22000000
    17  C          0.79455000       0.76135000       0.59043000
    18  C          0.70545000       0.26135000       0.90957000
    19  C          0.20545000       0.23865000       0.40957000
    20  C          0.29455000       0.73865000       0.09043000
    21  H          0.78140000       0.88370000       0.60460000
    22  H          0.71860000       0.38370000       0.89540000
    23  H          0.21860000       0.11630000       0.39540000
    24  H          0.28140000       0.61630000       0.10460000
    25  C          0.76016000       0.73097000       0.47983000
    26  C          0.73984000       0.23097000       0.02017000
    27  C          0.23984000       0.26903000       0.52017000
    28  C          0.26016000       0.76903000       0.97983000
    29  H          0.64960000       0.76680000       0.46340000
    30  H          0.85040000       0.26680000       0.03660000
    31  H          0.35040000       0.23320000       0.53660000
    32  H          0.14960000       0.73320000       0.96340000
    33  H          0.77170000       0.61110000       0.46510000
    34  H          0.72830000       0.11110000       0.03490000
    35  H          0.22830000       0.38890000       0.53490000
    36  H          0.27170000       0.88890000       0.96510000
    37  H          0.83680000       0.79520000       0.43990000
    38  H          0.66320000       0.29520000       0.06010000
    39  H          0.16320000       0.20480000       0.56010000
    40  H          0.33680000       0.70480000       0.93990000
    41  C          0.96576000       0.70817000       0.62134000
    42  C          0.53424000       0.20817000       0.87866000
    43  C          0.03424000       0.29183000       0.37866000
    44  C          0.46576000       0.79183000       0.12134000
    45  H         -0.01710000       0.73120000       0.69250000
    46  H          0.51710000       0.23120000       0.80750000
    47  H          0.01710000       0.26880000       0.30750000
    48  H          0.48290000       0.76880000       0.19250000
    49  H          0.04450000       0.77120000       0.58220000
    50  H          0.45550000       0.27120000       0.91780000
    51  H          0.95550000       0.22880000       0.41780000
    52  H          0.54450000       0.72880000       0.08220000
    53  H          0.97930000       0.58780000       0.60890000
    54  H          0.52070000       0.08780000       0.89110000
    55  H          0.02070000       0.41220000       0.39110000
    56  H          0.47930000       0.91220000       0.10890000
    57  C          0.49735000       0.69236000       0.63663000
    58  C          0.00265000       0.19236000       0.86337000
    59  C          0.50265000       0.30764000       0.36337000
    60  C         -0.00265000       0.80764000       0.13663000
    61  H          0.46890000       0.66150000       0.56610000
    62  H          0.03110000       0.16150000       0.93390000
    63  H          0.53110000       0.33850000       0.43390000
    64  H          0.96890000       0.83850000       0.06610000
    65  C          0.45576000       0.87526000       0.65354000
    66  C          0.04424000       0.37526000       0.84646000
    67  C          0.54424000       0.12474000       0.34646000
    68  C          0.95576000       0.62474000       0.15354000
    69  H          0.51540000       0.94510000       0.60640000
    70  H         -0.01540000       0.44510000       0.89360000
    71  H          0.48460000       0.05490000       0.39360000
    72  H          0.01540000       0.55490000       0.10640000
    73  H          0.48550000       0.90700000       0.72200000
    74  H          0.01450000       0.40700000       0.77800000
    75  H          0.51450000       0.09300000       0.27800000
    76  H         -0.01450000       0.59300000       0.22200000
    77  H          0.33930000       0.89190000       0.64300000
    78  H          0.16070000       0.39190000       0.85700000
    79  H          0.66070000       0.10810000       0.35700000
    80  H          0.83930000       0.60810000       0.14300000
    81  C          0.40826000       0.57677000       0.70674000
    82  C          0.09174000       0.07677000       0.79326000
    83  C          0.59174000       0.42323000       0.29326000
    84  C          0.90826000       0.92323000       0.20674000
    85  H          0.43820000       0.46020000       0.69280000
    86  H          0.06180000       0.96020000       0.80720000
    87  H          0.56180000       0.53980000       0.30720000
    88  H          0.93820000       0.03980000       0.19280000
    89  H          0.29140000       0.59060000       0.69670000
    90  H          0.20860000       0.09060000       0.80330000
    91  H          0.70860000       0.40940000       0.30330000
    92  H          0.79140000       0.90940000       0.19670000
    93  H          0.43730000       0.60450000       0.77590000
    94  H          0.06270000       0.10450000       0.72410000
    95  H          0.56270000       0.39550000       0.22410000
    96  H          0.93730000       0.89550000       0.27590000
