data_TEJKUO
_symmetry_space_group_name_H-M    'P1'
_symmetry_Int_Tables_number       1
loop_
_symmetry_equiv_pos_site_id
_symmetry_equiv_pos_as_xyz
1 x,y,z
_cell_length_a                   7.79894
_cell_length_b                   8.066011
_cell_length_c                   7.86311
_cell_angle_alpha                90.0
_cell_angle_beta                 116.33613
_cell_angle_gamma                90.0
loop_
_atom_site_label
_atom_site_type_symbol
_atom_site_fract_x
_atom_site_fract_y
_atom_site_fract_z
     1  Br         0.14997300       0.84540000       0.36481400
     2  Br         0.85002700       0.34540000       0.63518600
     3  N          0.16823000       0.44315000       0.47724000
     4  N          0.83177000       0.94315000       0.52276000
     5  H          0.09105200       0.42735000       0.52064900
     6  H          0.90894800       0.92735000       0.47935100
     7  H          0.15295400       0.53715700       0.43825300
     8  H          0.84704600       0.03715700       0.56174700
     9  C          0.36365000       0.41357000       0.63945000
    10  C          0.63635000       0.91357000       0.36055000
    11  H          0.45295000       0.43434800       0.59244600
    12  H          0.54705000       0.93434800       0.40755400
    13  C          0.38517000       0.23517000       0.70308000
    14  C          0.61483000       0.73517000       0.29692000
    15  H          0.37395800       0.16686400       0.60616100
    16  H          0.62604200       0.66686400       0.39383900
    17  H          0.30917900       0.21207800       0.74978400
    18  H          0.69082100       0.71207800       0.25021600
    19  H          0.52696300       0.21806000       0.82866300
    20  H          0.47303700       0.71806000       0.17133700
    21  C          0.38556000       0.53297000       0.79706000
    22  C          0.61444000       0.03297000       0.20294000
    23  H          0.35356800       0.64097800       0.75027100
    24  H          0.64643200       0.14097800       0.24972900
    25  H          0.49627200       0.52726600       0.90376200
    26  H          0.50372800       0.02726600       0.09623800
    27  H          0.29256300       0.49715900       0.84195900
    28  H          0.70743700      -0.00284100       0.15804100
    29  C          0.11224000       0.34261300       0.29754000
    30  C          0.88776000       0.84261300       0.70246000
    31  H          0.11375900       0.25256500       0.33035800
    32  H          0.88624100       0.75256500       0.66964200
    33  C          0.91265000       0.39666000       0.15795000
    34  C          0.08735000       0.89666000       0.84205000
    35  H          0.82995600       0.39873900       0.20674100
    36  H          0.17004400       0.89873900       0.79325900
    37  H          0.87695100       0.33512000       0.04585100
    38  H          0.12304900       0.83512000       0.95414900
    39  H          0.91333800       0.50536500       0.12295500
    40  H          0.08666200       0.00536500       0.87704500
    41  C          0.25716000       0.36531500       0.22116000
    42  C          0.74284000       0.86531500       0.77884000
    43  H          0.37914800       0.31385900       0.30404600
    44  H          0.62085200       0.81385900       0.69595400
    45  H          0.25756400       0.47736500       0.19425900
    46  H          0.74243600       0.97736500       0.80574100
    47  H          0.21204800       0.30675200       0.11134900
    48  H          0.78795200       0.80675200       0.88865100
