data_TEJKUO03
_symmetry_space_group_name_H-M    'P1'
_symmetry_Int_Tables_number       1
loop_
_symmetry_equiv_pos_site_id
_symmetry_equiv_pos_as_xyz
1 x,y,z
_cell_length_a                   7.9642
_cell_length_b                   8.2142
_cell_length_c                   13.4693
_cell_angle_alpha                90.0
_cell_angle_beta                 90.0
_cell_angle_gamma                90.0
loop_
_atom_site_label
_atom_site_type_symbol
_atom_site_fract_x
_atom_site_fract_y
_atom_site_fract_z
     1  Br         0.73841400       0.25095700       0.36362300
     2  Br         0.76158600       0.74904300       0.86362300
     3  Br         0.26158600       0.75095700       0.13637700
     4  Br         0.23841400       0.24904300       0.63637700
     5  N          0.83335000       0.33284000       0.59863000
     6  N          0.66665000       0.66716000       0.09863000
     7  N          0.16665000       0.83284000       0.90137000
     8  N          0.33335000       0.16716000       0.40137000
     9  H          0.94320000       0.32050000       0.61030000
    10  H          0.55680000       0.67950000       0.11030000
    11  H          0.05680000       0.82050000       0.88970000
    12  H          0.44320000       0.17950000       0.38970000
    13  H          0.80350000       0.31950000       0.53531600
    14  H          0.69650000       0.68050000       0.03531600
    15  H          0.19650000       0.81950000       0.96468400
    16  H          0.30350000       0.18050000       0.46468400
    17  C          0.80715000       0.51295000       0.61364000
    18  C          0.69285000       0.48705000       0.11364000
    19  C          0.19285000       0.01295000       0.88636000
    20  C          0.30715000      -0.01295000       0.38636000
    21  H          0.84300000       0.54130000       0.68100000
    22  H          0.65700000       0.45870000       0.18100000
    23  H          0.15700000       0.04130000       0.81900000
    24  H          0.34300000       0.95870000       0.31900000
    25  C          0.62295000       0.55586000       0.60275000
    26  C          0.87705000       0.44414000       0.10275000
    27  C          0.37705000       0.05586000       0.89725000
    28  C          0.12295000       0.94414000       0.39725000
    29  H          0.58530000       0.52660000       0.53740000
    30  H          0.91470000       0.47340000       0.03740000
    31  H          0.41470000       0.02660000       0.96260000
    32  H          0.08530000       0.97340000       0.46260000
    33  H          0.60820000       0.67060000       0.61250000
    34  H          0.89180000       0.32940000       0.11250000
    35  H          0.39180000       0.17060000       0.88750000
    36  H          0.10820000       0.82940000       0.38750000
    37  H          0.55870000       0.49720000       0.65130000
    38  H          0.94130000       0.50280000       0.15130000
    39  H          0.44130000      -0.00280000       0.84870000
    40  H          0.05870000       0.00280000       0.34870000
    41  C          0.91886000       0.60236000       0.54024000
    42  C          0.58114000       0.39764000       0.04024000
    43  C          0.08114000       0.10236000       0.95976000
    44  C          0.41886000       0.89764000       0.45976000
    45  H          0.03330000       0.56890000       0.54940000
    46  H          0.46670000       0.43110000       0.04940000
    47  H          0.96670000       0.06890000       0.95060000
    48  H          0.53330000       0.93110000       0.45060000
    49  H          0.90980000       0.71750000       0.55100000
    50  H          0.59020000       0.28250000       0.05100000
    51  H          0.09020000       0.21750000       0.94900000
    52  H          0.40980000       0.78250000       0.44900000
    53  H          0.88400000       0.57700000       0.47370000
    54  H          0.61600000       0.42300000       0.97370000
    55  H          0.11600000       0.07700000       0.02630000
    56  H          0.38400000       0.92300000       0.52630000
    57  C          0.73786000       0.21734000       0.66383000
    58  C          0.76214000       0.78266000       0.16383000
    59  C          0.26214000       0.71734000       0.83617000
    60  C          0.23786000       0.28266000       0.33617000
    61  H          0.61710000       0.23130000       0.65230000
    62  H          0.88290000       0.76870000       0.15230000
    63  H          0.38290000       0.73130000       0.84770000
    64  H          0.11710000       0.26870000       0.34770000
    65  C          0.77726000       0.25357000       0.77183000
    66  C          0.72274000       0.74643000       0.27183000
    67  C          0.22274000       0.75357000       0.72817000
    68  C          0.27726000       0.24643000       0.22817000
    69  H          0.89670000       0.25690000       0.78100000
    70  H          0.60330000       0.74310000       0.28100000
    71  H          0.10330000       0.75690000       0.71900000
    72  H          0.39670000       0.24310000       0.21900000
    73  H          0.73020000       0.16970000       0.81300000
    74  H          0.76980000       0.83030000       0.31300000
    75  H          0.26980000       0.66970000       0.68700000
    76  H          0.23020000       0.33030000       0.18700000
    77  H          0.72960000       0.35680000       0.78980000
    78  H          0.77040000       0.64320000       0.28980000
    79  H          0.27040000       0.85680000       0.71020000
    80  H          0.22960000       0.14320000       0.21020000
    81  C          0.78906000       0.04615000       0.63464000
    82  C          0.71094000       0.95385000       0.13464000
    83  C          0.21094000       0.54615000       0.86536000
    84  C          0.28906000       0.45385000       0.36536000
    85  H          0.77260000       0.03170000       0.56450000
    86  H          0.72740000       0.96830000       0.06450000
    87  H          0.22740000       0.53170000       0.93550000
    88  H          0.27260000       0.46830000       0.43550000
    89  H          0.72150000       0.96890000       0.67020000
    90  H          0.77850000       0.03110000       0.17020000
    91  H          0.27850000       0.46890000       0.82980000
    92  H          0.22150000       0.53110000       0.32980000
    93  H          0.90520000       0.02950000       0.65050000
    94  H          0.59480000       0.97050000       0.15050000
    95  H          0.09480000       0.52950000       0.84950000
    96  H          0.40520000       0.47050000       0.34950000
