data_TEMBES01
_symmetry_space_group_name_H-M    'P1'
_symmetry_Int_Tables_number       1
loop_
_symmetry_equiv_pos_site_id
_symmetry_equiv_pos_as_xyz
1 x,y,z
_cell_length_a                   7.1341
_cell_length_b                   12.1522
_cell_length_c                   13.3041
_cell_angle_alpha                90.0
_cell_angle_beta                 90.0
_cell_angle_gamma                90.0
loop_
_atom_site_label
_atom_site_type_symbol
_atom_site_fract_x
_atom_site_fract_y
_atom_site_fract_z
     1  O          0.21343000       0.59482000       0.56212000
     2  O          0.78657000       0.40518000       0.06212000
     3  O          0.28657000       0.59482000       0.06212000
     4  O          0.71343000       0.40518000       0.56212000
     5  H          0.23325400       0.66233300       0.55983100
     6  H          0.76674600       0.33766700       0.05983100
     7  H          0.26674600       0.66233300       0.05983100
     8  H          0.73325400       0.33766700       0.55983100
     9  O          0.15173000       0.73941150       0.71912000
    10  O          0.84827000       0.26058850       0.21912000
    11  O          0.34827000       0.73941150       0.21912000
    12  O          0.65173000       0.26058850       0.71912000
    13  O          0.09063000       0.41124150       0.76232000
    14  O          0.90937000       0.58875850       0.26232000
    15  O          0.40937000       0.41124150       0.26232000
    16  O          0.59063000       0.58875850       0.76232000
    17  C          0.18875000       0.36243000       0.59753000
    18  C          0.81125000       0.63757000       0.09753000
    19  C          0.31125000       0.36243000       0.09753000
    20  C          0.68875000       0.63757000       0.59753000
    21  H          0.23976800       0.39163600       0.53463900
    22  H          0.76023200       0.60836400       0.03463900
    23  H          0.26023200       0.39163600       0.03463900
    24  H          0.73976800       0.60836400       0.53463900
    25  H          0.07916700       0.31674100       0.59244000
    26  H          0.92083300       0.68325900       0.09244000
    27  H          0.42083300       0.31674100       0.09244000
    28  H          0.57916700       0.68325900       0.59244000
    29  H          0.28257100       0.31273400       0.62453800
    30  H          0.71742900       0.68726600       0.12453800
    31  H          0.21742900       0.31273400       0.12453800
    32  H          0.78257100       0.68726600       0.62453800
    33  C          0.14704000       0.45072000       0.67102000
    34  C          0.85296000       0.54928000       0.17102000
    35  C          0.35296000       0.45072000       0.17102000
    36  C          0.64704000       0.54928000       0.67102000
    37  C          0.16274000       0.56032000       0.65462000
    38  C          0.83726000       0.43968000       0.15462000
    39  C          0.33726000       0.56032000       0.15462000
    40  C          0.66274000       0.43968000       0.65462000
    41  C          0.12914000       0.63842000       0.73432000
    42  C          0.87086000       0.36158000       0.23432000
    43  C          0.37086000       0.63842000       0.23432000
    44  C          0.62914000       0.36158000       0.73432000
    45  C          0.07174000       0.59122000       0.82812000
    46  C          0.92826000       0.40878000       0.32812000
    47  C          0.42826000       0.59122000       0.32812000
    48  C          0.57174000       0.40878000       0.82812000
    49  H          0.04024200       0.63662700       0.88472800
    50  H          0.95975800       0.36337300       0.38472800
    51  H          0.45975800       0.63662700       0.38472800
    52  H          0.54024200       0.36337300       0.88472800
    53  C          0.05304000       0.48312000       0.83702000
    54  C          0.94696000       0.51688000       0.33702000
    55  C          0.44696000       0.48312000       0.33702000
    56  C          0.55304000       0.51688000       0.83702000
    57  H          0.01274300       0.44332400       0.89752600
    58  H         -0.01274300       0.55667600       0.39752600
    59  H          0.48725700       0.44332400       0.39752600
    60  H          0.51274300       0.55667600       0.89752600
    61  O          0.16884000       0.93592000       0.82142000
    62  O          0.83116000       0.06408000       0.32142000
    63  O          0.33116000       0.93592000       0.32142000
    64  O          0.66884000       0.06408000       0.82142000
    65  H          0.16195600       0.87003800       0.82193800
    66  H          0.83804400       0.12996200       0.32193800
    67  H          0.33804400       0.87003800       0.32193800
    68  H          0.66195600       0.12996200       0.82193800
    69  O          0.17173000       0.78859150       0.97732000
    70  O          0.82827000       0.21140850       0.47732000
    71  O          0.32827000       0.78859150       0.47732000
    72  O          0.67173000       0.21140850       0.97732000
    73  O          0.10923000       0.11312000       0.03432000
    74  O          0.89077000       0.88688000       0.53432000
    75  O          0.39077000       0.11312000       0.53432000
    76  O          0.60923000       0.88688000       0.03432000
    77  C          0.13838000       0.16843000       0.86424000
    78  C          0.86162000       0.83157000       0.36424000
    79  C          0.36162000       0.16843000       0.36424000
    80  C          0.63838000       0.83157000       0.86424000
    81  H          0.03726500       0.21073800       0.87274100
    82  H          0.96273500       0.78926200       0.37274100
    83  H          0.46273500       0.21073800       0.37274100
    84  H          0.53726500       0.78926200       0.87274100
    85  H          0.24517500       0.20983800       0.87124400
    86  H          0.75482500       0.79016200       0.37124400
    87  H          0.25482500       0.20983800       0.37124400
    88  H          0.74517500       0.79016200       0.87124400
    89  H          0.14305600       0.14233800       0.79513700
    90  H          0.85694400       0.85766200       0.29513700
    91  H          0.35694400       0.14233800       0.29513700
    92  H          0.64305600       0.85766200       0.79513700
    93  C          0.13204000       0.07712000       0.93812000
    94  C          0.86796000       0.92288000       0.43812000
    95  C          0.36796000       0.07712000       0.43812000
    96  C          0.63204000       0.92288000       0.93812000
    97  C          0.14824000       0.96912000       0.91742000
    98  C          0.85176000       0.03088000       0.41742000
    99  C          0.35176000       0.96912000       0.41742000
   100  C          0.64824000       0.03088000       0.91742000
   101  C          0.14834000       0.88772000      -0.00278000
   102  C          0.85166000       0.11228000       0.49722000
   103  C          0.35166000       0.88772000       0.49722000
   104  C          0.64834000       0.11228000      -0.00278000
   105  C          0.12005000       0.93183000       0.09562000
   106  C          0.87995000       0.06817000       0.59562000
   107  C          0.37995000       0.93183000       0.59562000
   108  C          0.62005000       0.06817000       0.09562000
   109  H          0.12024700       0.88602800       0.14432600
   110  H          0.87975300       0.11397200       0.64432600
   111  H          0.37975300       0.88602800       0.64432600
   112  H          0.62024700       0.11397200       0.14432600
   113  C          0.10115000       0.03933000       0.10932000
   114  C          0.89885000       0.96067000       0.60932000
   115  C          0.39885000       0.03933000       0.60932000
   116  C          0.60115000       0.96067000       0.10932000
   117  H          0.07204500       0.07252600       0.17092800
   118  H          0.92795500       0.92747400       0.67092800
   119  H          0.42795500       0.07252600       0.67092800
   120  H          0.57204500       0.92747400       0.17092800
