data_TEMBES
_symmetry_space_group_name_H-M    'P1'
_symmetry_Int_Tables_number       1
loop_
_symmetry_equiv_pos_site_id
_symmetry_equiv_pos_as_xyz
1 x,y,z
_cell_length_a                   7.1662
_cell_length_b                   35.9091
_cell_length_c                   6.9822
_cell_angle_alpha                90.0
_cell_angle_beta                 109.793
_cell_angle_gamma                90.0
loop_
_atom_site_label
_atom_site_type_symbol
_atom_site_fract_x
_atom_site_fract_y
_atom_site_fract_z
     1  O          0.07552000       0.60590300       0.92572000
     2  O          0.92448000       0.10590300       0.57428000
     3  O          0.92448000       0.39409700       0.07428000
     4  O          0.07552000       0.89409700       0.42572000
     5  O          0.33932000       0.65787300       0.87882000
     6  O          0.66068000       0.15787300       0.62118000
     7  O          0.66068000       0.34212700       0.12118000
     8  O          0.33932000       0.84212700       0.37882000
     9  O          0.49992000       0.54927300       0.95962000
    10  O          0.50008000       0.04927300       0.54038000
    11  O          0.50008000       0.45072700       0.04038000
    12  O          0.49992000       0.95072700       0.45962000
    13  C          0.19133000       0.52807500       0.97503000
    14  C          0.80867000       0.02807500       0.52497000
    15  C          0.80867000       0.47192500       0.02497000
    16  C          0.19133000       0.97192500       0.47503000
    17  C          0.31492000       0.55984400       0.95292000
    18  C          0.68508000       0.05984400       0.54708000
    19  C          0.68508000       0.44015600       0.04708000
    20  C          0.31492000       0.94015600       0.45292000
    21  C          0.25952000       0.59623400       0.92922000
    22  C          0.74048000       0.09623400       0.57078000
    23  C          0.74048000       0.40376600       0.07078000
    24  C          0.25952000       0.90376600       0.42922000
    25  C          0.39252000       0.62463400       0.90612000
    26  C          0.60748000       0.12463400       0.59388000
    27  C          0.60748000       0.37536600       0.09388000
    28  C          0.39252000       0.87536600       0.40612000
    29  C          0.58642000       0.61170500       0.91932000
    30  C          0.41358000       0.11170500       0.58068000
    31  C          0.41358000       0.38829500       0.08068000
    32  C          0.58642000       0.88829500       0.41932000
    33  C          0.62872000       0.57535500       0.94322000
    34  C          0.37128000       0.07535500       0.55678000
    35  C          0.37128000       0.42464500       0.05678000
    36  C          0.62872000       0.92464500       0.44322000
    37  H          0.05550000       0.62830000       0.90460000
    38  H          0.94450000       0.12830000       0.59540000
    39  H          0.94450000       0.37170000       0.09540000
    40  H          0.05550000       0.87170000       0.40460000
    41  H          0.06280000       0.53460000       0.97620000
    42  H          0.93720000       0.03460000       0.52380000
    43  H          0.93720000       0.46540000       0.02380000
    44  H          0.06280000       0.96540000       0.47620000
    45  H          0.25850000       0.51500000       0.09390000
    46  H          0.74150000       0.01500000       0.40610000
    47  H          0.74150000       0.48500000       0.90610000
    48  H          0.25850000       0.98500000       0.59390000
    49  H          0.17130000       0.51100000       0.86040000
    50  H          0.82870000       0.01100000       0.63960000
    51  H          0.82870000       0.48900000       0.13960000
    52  H          0.17130000       0.98900000       0.36040000
    53  H          0.68220000       0.62790000       0.91090000
    54  H          0.31780000       0.12790000       0.58910000
    55  H          0.31780000       0.37210000       0.08910000
    56  H          0.68220000       0.87210000       0.41090000
    57  H          0.76440000       0.56560000       0.95000000
    58  H          0.23560000       0.06560000       0.55000000
    59  H          0.23560000       0.43440000       0.05000000
    60  H          0.76440000       0.93440000       0.45000000
    61  O          0.19052000       0.72636300       0.89642000
    62  O          0.80948000       0.22636300       0.60358000
    63  O          0.80948000       0.27363700       0.10358000
    64  O          0.19052000       0.77363700       0.39642000
    65  O          0.89848000       0.67398300       0.85142000
    66  O          0.10152000       0.17398300       0.64858000
    67  O          0.10152000       0.32601700       0.14858000
    68  O          0.89848000       0.82601700       0.35142000
    69  O          0.76188000       0.78377300       0.82922000
    70  O          0.23812000       0.28377300       0.67078000
    71  O          0.23812000       0.21622700       0.17078000
    72  O          0.76188000       0.71622700       0.32922000
    73  C          0.09003000       0.80473500       0.88333000
    74  C          0.90997000       0.30473500       0.61667000
    75  C          0.90997000       0.19526500       0.11667000
    76  C          0.09003000       0.69526500       0.38333000
    77  C          0.95258000       0.77285400       0.85912000
    78  C          0.04742000       0.27285400       0.64088000
    79  C          0.04742000       0.22714600       0.14088000
    80  C          0.95258000       0.72714600       0.35912000
    81  C          0.00092000       0.73626400       0.86662000
    82  C         -0.00092000       0.23626400       0.63338000
    83  C         -0.00092000       0.26373600       0.13338000
    84  C          0.00092000       0.76373600       0.36662000
    85  C          0.85308000       0.70756400       0.84522000
    86  C          0.14692000       0.20756400       0.65478000
    87  C          0.14692000       0.29243600       0.15478000
    88  C          0.85308000       0.79243600       0.34522000
    89  C          0.65688000       0.72099500       0.81633000
    90  C          0.34312000       0.22099500       0.68367000
    91  C          0.34312000       0.27900500       0.18367000
    92  C          0.65688000       0.77900500       0.31633000
    93  C          0.62158000       0.75781500       0.80893000
    94  C          0.37842000       0.25781500       0.69107000
    95  C          0.37842000       0.24218500       0.19107000
    96  C          0.62158000       0.74218500       0.30893000
    97  H          0.20630000       0.70210000       0.89440000
    98  H          0.79370000       0.20210000       0.60560000
    99  H          0.79370000       0.29790000       0.10560000
   100  H          0.20630000       0.79790000       0.39440000
   101  H          0.08510000       0.82050000      -0.00350000
   102  H          0.91490000       0.32050000       0.50350000
   103  H          0.91490000       0.17950000       0.00350000
   104  H          0.08510000       0.67950000       0.49650000
   105  H          0.22770000       0.79580000       0.90850000
   106  H          0.77230000       0.29580000       0.59150000
   107  H          0.77230000       0.20420000       0.09150000
   108  H          0.22770000       0.70420000       0.40850000
   109  H          0.04560000       0.82130000       0.77340000
   110  H          0.95440000       0.32130000       0.72660000
   111  H          0.95440000       0.17870000       0.22660000
   112  H          0.04560000       0.67870000       0.27340000
   113  H          0.55140000       0.70460000       0.80370000
   114  H          0.44860000       0.20460000       0.69630000
   115  H          0.44860000       0.29540000       0.19630000
   116  H          0.55140000       0.79540000       0.30370000
   117  H          0.48730000       0.76910000       0.78500000
   118  H          0.51270000       0.26910000       0.71500000
   119  H          0.51270000       0.23090000       0.21500000
   120  H          0.48730000       0.73090000       0.28500000
   121  O          0.42772000       0.56081300       0.46632000
   122  O          0.57228000       0.06081300       0.03368000
   123  O          0.57228000       0.43918700       0.53368000
   124  O          0.42772000       0.93918700       0.96632000
   125  O          0.71442000       0.50828300       0.49552000
   126  O          0.28558000       0.00828300       0.00448000
   127  O          0.28558000       0.49171700       0.50448000
   128  O          0.71442000       0.99171700      -0.00448000
   129  O          0.82662000       0.61682300       0.41932000
   130  O          0.17338000       0.11682300       0.08068000
   131  O          0.17338000       0.38317700       0.58068000
   132  O          0.82662000       0.88317700       0.91932000
   133  C          0.51523000       0.63870400       0.42053000
   134  C          0.48477000       0.13870400       0.07947000
   135  C          0.48477000       0.36129600       0.57947000
   136  C          0.51523000       0.86129600       0.92053000
   137  C          0.64822000       0.60656400       0.43252000
   138  C          0.35178000       0.10656400       0.06748000
   139  C          0.35178000       0.39343600       0.56748000
   140  C          0.64822000       0.89343600       0.93252000
   141  C          0.60632000       0.57026400       0.45462000
   142  C          0.39368000       0.07026400       0.04538000
   143  C          0.39368000       0.42973600       0.54538000
   144  C          0.60632000       0.92973600       0.95462000
   145  C          0.75072000       0.54141400       0.46882000
   146  C          0.24928000       0.04141400       0.03118000
   147  C          0.24928000       0.45858600       0.53118000
   148  C          0.75072000       0.95858600       0.96882000
   149  C          0.93422000       0.55404500       0.44933000
   150  C          0.06578000       0.05404500       0.05067000
   151  C          0.06578000       0.44595500       0.55067000
   152  C          0.93422000       0.94595500       0.94933000
   153  C          0.96232000       0.59056500       0.42713000
   154  C          0.03768000       0.09056500       0.07287000
   155  C          0.03768000       0.40943500       0.57287000
   156  C          0.96232000       0.90943500       0.92713000
   157  H          0.41990000       0.53720000       0.48540000
   158  H          0.58010000       0.03720000       0.01460000
   159  H          0.58010000       0.46280000       0.51460000
   160  H          0.41990000       0.96280000      -0.01460000
   161  H          0.57360000       0.65630000       0.53100000
   162  H          0.42640000       0.15630000       0.96900000
   163  H          0.42640000       0.34370000       0.46900000
   164  H          0.57360000       0.84370000       0.03100000
   165  H          0.50160000       0.65230000       0.30170000
   166  H          0.49840000       0.15230000       0.19830000
   167  H          0.49840000       0.34770000       0.69830000
   168  H          0.50160000       0.84770000       0.80170000
   169  H          0.39090000       0.63140000       0.42670000
   170  H          0.60910000       0.13140000       0.07330000
   171  H          0.60910000       0.36860000       0.57330000
   172  H          0.39090000       0.86860000       0.92670000
   173  H          0.03530000       0.53720000       0.45830000
   174  H          0.96470000       0.03720000       0.04170000
   175  H          0.96470000       0.46280000       0.54170000
   176  H          0.03530000       0.96280000       0.95830000
   177  H          0.08340000       0.60080000       0.41410000
   178  H          0.91660000       0.10080000       0.08590000
   179  H          0.91660000       0.39920000       0.58590000
   180  H          0.08340000       0.89920000       0.91410000
