data_TEMBES06
_symmetry_space_group_name_H-M    'P1'
_symmetry_Int_Tables_number       1
loop_
_symmetry_equiv_pos_site_id
_symmetry_equiv_pos_as_xyz
1 x,y,z
_cell_length_a                   7.1368
_cell_length_b                   24.233
_cell_length_c                   7.0208
_cell_angle_alpha                90.0
_cell_angle_beta                 106.223
_cell_angle_gamma                90.0
loop_
_atom_site_label
_atom_site_type_symbol
_atom_site_fract_x
_atom_site_fract_y
_atom_site_fract_z
     1  O          0.09593000       0.45666800       0.75553000
     2  O          0.90407000       0.95666800       0.74447000
     3  O          0.90407000       0.54333200       0.24447000
     4  O          0.09593000       0.04333200       0.25553000
     5  O          0.67713000       0.54142800       0.71674000
     6  O          0.32287000       0.04142800       0.78326000
     7  O          0.32287000       0.45857200       0.28326000
     8  O          0.67713000       0.95857200       0.21674000
     9  H          0.67214900       0.57437700       0.74142500
    10  H          0.32785100       0.07437700       0.75857500
    11  H          0.32785100       0.42562300       0.25857500
    12  H          0.67214900       0.92562300       0.24142500
    13  O          0.97333000       0.61730800       0.78293000
    14  O          0.02667000       0.11730800       0.71707000
    15  O          0.02667000       0.38269200       0.21707000
    16  O          0.97333000       0.88269200       0.28293000
    17  C          0.86354000       0.52670110       0.73994000
    18  C          0.13646000       0.02670110       0.76006000
    19  C          0.13646000       0.47329890       0.26006000
    20  C          0.86354000       0.97329890       0.23994000
    21  C          0.01274000       0.56812110       0.77374000
    22  C         -0.01274000       0.06812110       0.72626000
    23  C         -0.01274000       0.43187890       0.22626000
    24  C          0.01274000       0.93187890       0.27374000
    25  C          0.20604000       0.54790120       0.79494000
    26  C          0.79396000       0.04790120       0.70506000
    27  C          0.79396000       0.45209880       0.20506000
    28  C          0.20604000       0.95209880       0.29494000
    29  H          0.30996800       0.57245000       0.81616200
    30  H          0.69003200       0.07245000       0.68383800
    31  H          0.69003200       0.42755000       0.18383800
    32  H          0.30996800       0.92755000       0.31616200
    33  C          0.90704000       0.47242110       0.73164000
    34  C          0.09296000       0.97242110       0.76836000
    35  C          0.09296000       0.52757890       0.26836000
    36  C          0.90704000       0.02757890       0.23164000
    37  C          0.23644000       0.49470130       0.78454000
    38  C          0.76356000      -0.00529870       0.71546000
    39  C          0.76356000       0.50529870       0.21546000
    40  C          0.23644000       0.00529870       0.28454000
    41  H          0.36338300       0.48280000       0.79807600
    42  H          0.63661700       0.98280000       0.70192400
    43  H          0.63661700       0.51720000       0.20192400
    44  H          0.36338300       0.01720000       0.29807600
    45  C          0.77074000       0.42647120       0.69704000
    46  C          0.22926000       0.92647120       0.80296000
    47  C          0.22926000       0.57352880       0.30296000
    48  C          0.77074000       0.07352880       0.19704000
    49  H          0.64033400       0.44027100       0.67518200
    50  H          0.35966600       0.94027100       0.82481800
    51  H          0.35966600       0.55972900       0.32481800
    52  H          0.64033400       0.05972900       0.17518200
    53  H          0.80213100       0.40258700       0.81062300
    54  H          0.19786900       0.90258700       0.68937700
    55  H          0.19786900       0.59741300       0.18937700
    56  H          0.80213100       0.09741300       0.31062300
    57  H          0.77977100       0.40621300       0.58238700
    58  H          0.22022900       0.90621300       0.91761300
    59  H          0.22022900       0.59378700       0.41761300
    60  H          0.77977100       0.09378700       0.08238700
    61  O          0.38873000       0.80375800       0.68693000
    62  O          0.61127000       0.30375800       0.81307000
    63  O          0.61127000       0.19624200       0.31307000
    64  O          0.38873000       0.69624200       0.18693000
    65  O          0.81433000       0.71914800       0.77714000
    66  O          0.18567000       0.21914800       0.72286000
    67  O          0.18567000       0.28085200       0.22286000
    68  O          0.81433000       0.78085200       0.27714000
    69  H          0.82400000       0.68557600       0.79150200
    70  H          0.17600000       0.18557600       0.70849800
    71  H          0.17600000       0.31442400       0.20849800
    72  H          0.82400000       0.81442400       0.29150200
    73  O          0.52283000       0.64260800       0.72573000
    74  O          0.47717000       0.14260800       0.77427000
    75  O          0.47717000       0.35739200       0.27427000
    76  O          0.52283000       0.85739200       0.22573000
    77  C          0.62594000       0.73386110       0.73864000
    78  C          0.37406000       0.23386110       0.76136000
    79  C          0.37406000       0.26613890       0.26136000
    80  C          0.62594000       0.76613890       0.23864000
    81  C          0.57984000       0.78796110       0.72834000
    82  C          0.42016000       0.28796110       0.77166000
    83  C          0.42016000       0.21203890       0.27166000
    84  C          0.57984000       0.71203890       0.22834000
    85  C          0.47894000       0.69183110       0.71394000
    86  C          0.52106000       0.19183110       0.78606000
    87  C          0.52106000       0.30816890       0.28606000
    88  C          0.47894000       0.80816890       0.21394000
    89  C          0.28344000       0.71210120       0.67384000
    90  C          0.71656000       0.21210120       0.82616000
    91  C          0.71656000       0.28789880       0.32616000
    92  C          0.28344000       0.78789880       0.17384000
    93  H          0.18002500       0.68745100       0.65636600
    94  H          0.81997500       0.18745100       0.84363400
    95  H          0.81997500       0.31254900       0.34363400
    96  H          0.18002500       0.81254900       0.15636600
    97  C          0.24934000       0.76587130       0.66165000
    98  C          0.75066000       0.26587130       0.83835000
    99  C          0.75066000       0.23412870       0.33835000
   100  C          0.24934000       0.73412870       0.16165000
   101  H          0.12062800       0.77778900       0.63362200
   102  H          0.87937200       0.27778900       0.86637800
   103  H          0.87937200       0.22221100       0.36637800
   104  H          0.12062800       0.72221100       0.13362200
   105  C          0.71545000       0.83461120       0.75645000
   106  C          0.28455000       0.33461120       0.74355000
   107  C          0.28455000       0.16538880       0.24355000
   108  C          0.71545000       0.66538880       0.25645000
   109  H          0.84655600       0.82103700       0.78246400
   110  H          0.15344400       0.32103700       0.71753600
   111  H          0.15344400       0.17896300       0.21753600
   112  H          0.84655600       0.67896300       0.28246400
   113  H          0.70402000       0.85649400       0.86663300
   114  H          0.29598000       0.35649400       0.63336700
   115  H          0.29598000       0.14350600       0.13336700
   116  H          0.70402000       0.64350600       0.36663300
   117  H          0.68454200       0.85685700       0.63860800
   118  H          0.31545800       0.35685700       0.86139200
   119  H          0.31545800       0.14314300       0.36139200
   120  H          0.68454200       0.64314300       0.13860800
