data_TFMETH03
_symmetry_space_group_name_H-M    'P1'
_symmetry_Int_Tables_number       1
loop_
_symmetry_equiv_pos_site_id
_symmetry_equiv_pos_as_xyz
1 x,y,z
_cell_length_a                   8.435
_cell_length_b                   4.32
_cell_length_c                   8.48
_cell_angle_alpha                90.0
_cell_angle_beta                 120.7
_cell_angle_gamma                90.0
loop_
_atom_site_label
_atom_site_type_symbol
_atom_site_fract_x
_atom_site_fract_y
_atom_site_fract_z
     1  C          0.00000000       0.17800000       0.75000000
     2  C          0.50000000       0.67800000       0.75000000
     3  C          0.00000000       0.82200000       0.25000000
     4  C          0.50000000       0.32200000       0.25000000
     5  F          0.10600000       0.35500000       0.71400000
     6  F          0.60600000       0.85500000       0.71400000
     7  F          0.89400000       0.35500000       0.78600000
     8  F          0.39400000       0.85500000       0.78600000
     9  F          0.89400000       0.64500000       0.28600000
    10  F          0.39400000       0.14500000       0.28600000
    11  F          0.10600000       0.64500000       0.21400000
    12  F          0.60600000       0.14500000       0.21400000
    13  F          0.89500000      -0.00200000       0.60600000
    14  F          0.39500000       0.49800000       0.60600000
    15  F          0.10500000      -0.00200000       0.89400000
    16  F          0.60500000       0.49800000       0.89400000
    17  F          0.10500000       0.00200000       0.39400000
    18  F          0.60500000       0.50200000       0.39400000
    19  F          0.89500000       0.00200000       0.10600000
    20  F          0.39500000       0.50200000       0.10600000
