data_TFMETH05
_symmetry_space_group_name_H-M    'P1'
_symmetry_Int_Tables_number       1
loop_
_symmetry_equiv_pos_site_id
_symmetry_equiv_pos_as_xyz
1 x,y,z
_cell_length_a                   6.5913
_cell_length_b                   4.32662
_cell_length_c                   6.6294
_cell_angle_alpha                90.0
_cell_angle_beta                 102.576
_cell_angle_gamma                90.0
loop_
_atom_site_label
_atom_site_type_symbol
_atom_site_fract_x
_atom_site_fract_y
_atom_site_fract_z
     1  F          0.08331000       0.56275000       0.19501100
     2  F          0.91669000       0.06275000       0.30498900
     3  F          0.91669000       0.43725000       0.80498900
     4  F          0.08331000       0.93725000       0.69501100
     5  F          0.20018000       0.43135000       0.51459000
     6  F          0.79982000       0.93135000      -0.01459000
     7  F          0.79982000       0.56865000       0.48541000
     8  F          0.20018000       0.06865000       0.01459000
     9  F          0.40428000       0.42385000       0.30299000
    10  F          0.59572000       0.92385000       0.19701000
    11  F          0.59572000       0.57615000       0.69701000
    12  F          0.40428000       0.07615000       0.80299000
    13  F          0.30327000       0.85555000       0.40378000
    14  F          0.69673000       0.35555000       0.09622000
    15  F          0.69673000       0.14445000       0.59622000
    16  F          0.30327000       0.64445000       0.90378000
    17  C          0.24331700       0.56767000       0.35021800
    18  C          0.75668300       0.06767000       0.14978200
    19  C          0.75668300       0.43233000       0.64978200
    20  C          0.24331700       0.93233000       0.85021800
