data_TFMETH06
_symmetry_space_group_name_H-M    'P1'
_symmetry_Int_Tables_number       1
loop_
_symmetry_equiv_pos_site_id
_symmetry_equiv_pos_as_xyz
1 x,y,z
_cell_length_a                   6.492112
_cell_length_b                   6.492112
_cell_length_c                   6.492112
_cell_angle_alpha                90.0
_cell_angle_beta                 90.0
_cell_angle_gamma                90.0
loop_
_atom_site_label
_atom_site_type_symbol
_atom_site_fract_x
_atom_site_fract_y
_atom_site_fract_z
     1  F          0.25684180       0.25684180       0.25684180
     2  F          0.24315820       0.74315820       0.75684180
     3  F          0.74315820       0.75684180       0.24315820
     4  F          0.75684180       0.24315820       0.74315820
     5  F          0.74315820       0.74315820       0.74315820
     6  F          0.75684180       0.25684180       0.24315820
     7  F          0.25684180       0.24315820       0.75684180
     8  F          0.24315820       0.75684180       0.25684180
     9  F          0.25413000       0.48532000       0.49232160
    10  F          0.24587000       0.51468000      -0.00767840
    11  F          0.74587000      -0.01468000       0.00767840
    12  F          0.75413000       0.01468000       0.50767840
    13  F          0.49232160       0.25413000       0.48532000
    14  F         -0.00767840       0.24587000       0.51468000
    15  F          0.00767840       0.74587000      -0.01468000
    16  F          0.50767840       0.75413000       0.01468000
    17  F          0.48532000       0.49232160       0.25413000
    18  F          0.51468000      -0.00767840       0.24587000
    19  F         -0.01468000       0.00767840       0.74587000
    20  F          0.01468000       0.50767840       0.75413000
    21  F          0.74587000       0.51468000       0.50767840
    22  F          0.75413000       0.48532000       0.00767840
    23  F          0.25413000       0.01468000      -0.00767840
    24  F          0.24587000      -0.01468000       0.49232160
    25  F          0.50767840       0.74587000       0.51468000
    26  F          0.00767840       0.75413000       0.48532000
    27  F         -0.00767840       0.25413000       0.01468000
    28  F          0.49232160       0.24587000      -0.01468000
    29  F          0.51468000       0.50767840       0.74587000
    30  F          0.48532000       0.00767840       0.75413000
    31  F          0.01468000      -0.00767840       0.25413000
    32  F         -0.01468000       0.49232160       0.24587000
    33  C          0.37533000       0.37533000       0.37533000
    34  C          0.12467000       0.62467000       0.87533000
    35  C          0.62467000       0.87533000       0.12467000
    36  C          0.87533000       0.12467000       0.62467000
    37  C          0.62467000       0.62467000       0.62467000
    38  C          0.87533000       0.37533000       0.12467000
    39  C          0.37533000       0.12467000       0.87533000
    40  C          0.12467000       0.87533000       0.37533000
