data_TFMETH
_symmetry_space_group_name_H-M    'P1'
_symmetry_Int_Tables_number       1
loop_
_symmetry_equiv_pos_site_id
_symmetry_equiv_pos_as_xyz
1 x,y,z
_cell_length_a                   8.4355
_cell_length_b                   4.3202
_cell_length_c                   8.3695
_cell_angle_alpha                90.0
_cell_angle_beta                 119.4
_cell_angle_gamma                90.0
loop_
_atom_site_label
_atom_site_type_symbol
_atom_site_fract_x
_atom_site_fract_y
_atom_site_fract_z
     1  C          0.25000000       0.32300000       0.25000000
     2  C          0.75000000       0.82300000       0.25000000
     3  C          0.75000000       0.67700000       0.75000000
     4  C          0.25000000       0.17700000       0.75000000
     5  F          0.39200000       0.50000000       0.28600000
     6  F          0.60800000      -0.00000000       0.21400000
     7  F          0.60800000       0.50000000       0.71400000
     8  F          0.39200000      -0.00000000       0.78600000
     9  F          0.28900000       0.50000000       0.39400000
    10  F          0.71100000      -0.00000000       0.10600000
    11  F          0.71100000       0.50000000       0.60600000
    12  F          0.28900000      -0.00000000       0.89400000
    13  F          0.10800000       0.14700000       0.21400000
    14  F          0.89200000       0.64700000       0.28600000
    15  F          0.89200000       0.85300000       0.78600000
    16  F          0.10800000       0.35300000       0.71400000
    17  F          0.21100000       0.14700000       0.10600000
    18  F          0.78900000       0.64700000       0.39400000
    19  F          0.78900000       0.85300000       0.89400000
    20  F          0.21100000       0.35300000       0.60600000
