data_TFMETH07
_symmetry_space_group_name_H-M    'P1'
_symmetry_Int_Tables_number       1
loop_
_symmetry_equiv_pos_site_id
_symmetry_equiv_pos_as_xyz
1 x,y,z
_cell_length_a                   7.0271
_cell_length_b                   3.344711
_cell_length_c                   7.012
_cell_angle_alpha                90.0
_cell_angle_beta                 124.63
_cell_angle_gamma                90.0
loop_
_atom_site_label
_atom_site_type_symbol
_atom_site_fract_x
_atom_site_fract_y
_atom_site_fract_z
     1  C          0.00000000       0.02339000       0.25000000
     2  C          0.50000000       0.52339000       0.25000000
     3  C          0.00000000      -0.02339000       0.75000000
     4  C          0.50000000       0.47661000       0.75000000
     5  F          0.82468000       0.79575000       0.19505000
     6  F          0.17532000       0.79575000       0.30495000
     7  F          0.32468000       0.29575000       0.19505000
     8  F          0.67532000       0.29575000       0.30495000
     9  F          0.17532000       0.20425000       0.80495000
    10  F          0.82468000       0.20425000       0.69505000
    11  F          0.67532000       0.70425000       0.80495000
    12  F          0.32468000       0.70425000       0.69505000
    13  F          0.05503000       0.24504000       0.42564000
    14  F          0.94497000       0.24504000       0.07436000
    15  F          0.55503000       0.74504000       0.42564000
    16  F          0.44497000       0.74504000       0.07436000
    17  F          0.94497000       0.75496000       0.57436000
    18  F          0.05503000       0.75496000       0.92564000
    19  F          0.44497000       0.25496000       0.57436000
    20  F          0.55503000       0.25496000       0.92564000
