data_THBARB03
_symmetry_space_group_name_H-M    'P1'
_symmetry_Int_Tables_number       1
loop_
_symmetry_equiv_pos_site_id
_symmetry_equiv_pos_as_xyz
1 x,y,z
_cell_length_a                   8.43001
_cell_length_b                   13.14979
_cell_length_c                   13.2122
_cell_angle_alpha                90.0
_cell_angle_beta                 127.5929
_cell_angle_gamma                90.0
loop_
_atom_site_label
_atom_site_type_symbol
_atom_site_fract_x
_atom_site_fract_y
_atom_site_fract_z
     1  H          0.46430000       0.22571600       0.40311800
     2  H          0.53570000       0.72571600       0.09688200
     3  H          0.53570000       0.77428400       0.59688200
     4  H          0.46430000       0.27428400       0.90311800
     5  H          0.42940000       0.42520000       0.18920000
     6  H          0.57060000       0.92520000       0.31080000
     7  H          0.57060000       0.57480000       0.81080000
     8  H          0.42940000       0.07480000       0.68920000
     9  C          0.43343000       0.33765150       0.30862190
    10  C          0.56657000       0.83765150       0.19137810
    11  C          0.56657000       0.66234850       0.69137810
    12  C          0.43343000       0.16234850       0.80862190
    13  C          0.48933000       0.15934150       0.28692000
    14  C          0.51067000       0.65934150       0.21308000
    15  C          0.51067000       0.84065850       0.71308000
    16  C          0.48933000       0.34065850       0.78692000
    17  C          0.50324000       0.18808160       0.18312000
    18  C          0.49676000       0.68808160       0.31688000
    19  C          0.49676000       0.81191840       0.81688000
    20  C          0.50324000       0.31191840       0.68312000
    21  H          0.63820000       0.17350000       0.21280000
    22  H          0.36180000       0.67350000       0.28720000
    23  H          0.36180000       0.82650000       0.78720000
    24  H          0.63820000       0.32650000       0.71280000
    25  H          0.41350000       0.14420000       0.11040000
    26  H          0.58650000       0.64420000       0.38960000
    27  H          0.58650000       0.85580000       0.88960000
    28  H          0.41350000       0.35580000       0.61040000
    29  C          0.45603000       0.29533160       0.13772190
    30  C          0.54397000       0.79533160       0.36227810
    31  C          0.54397000       0.70466840       0.86227810
    32  C          0.45603000       0.20466840       0.63772190
    33  N          0.43473000       0.36157130       0.20848170
    34  N          0.56527000       0.86157130       0.29151830
    35  N          0.56527000       0.63842870       0.79151830
    36  N          0.43473000       0.13842870       0.70848170
    37  N          0.46183000       0.23791130       0.34309160
    38  N          0.53817000       0.73791130       0.15690840
    39  N          0.53817000       0.76208870       0.65690840
    40  N          0.46183000       0.26208870       0.84309160
    41  O          0.50433000       0.07298110       0.32333140
    42  O          0.49567000       0.57298110       0.17666860
    43  O          0.49567000       0.92701890       0.67666860
    44  O          0.50433000       0.42701890       0.82333140
    45  O          0.44053000       0.32567120       0.04504150
    46  O          0.55947000       0.82567120       0.45495850
    47  O          0.55947000       0.67432880       0.95495850
    48  O          0.44053000       0.17432880       0.54504150
    49  S          0.39866100       0.42400400       0.38267500
    50  S          0.60133900       0.92400400       0.11732500
    51  S          0.60133900       0.57599600       0.61732500
    52  S          0.39866100       0.07599600       0.88267500
    53  H          0.96170000       0.46281700       0.38831800
    54  H          0.03830000       0.96281700       0.11168200
    55  H          0.03830000       0.53718300       0.61168200
    56  H          0.96170000       0.03718300       0.88831800
    57  H          0.01940000       0.68571900       0.24220000
    58  H         -0.01940000       0.18571900       0.25780000
    59  H         -0.01940000       0.31428100       0.75780000
    60  H          0.01940000       0.81428100       0.74220000
    61  C         -0.01523000       0.58482160       0.33492000
    62  C          0.01523000       0.08482160       0.16508000
    63  C          0.01523000       0.41517840       0.66508000
    64  C         -0.01523000       0.91517840       0.83492000
    65  C          0.91237000       0.41673170       0.23752000
    66  C          0.08763000       0.91673170       0.26248000
    67  C          0.08763000       0.58326830       0.76248000
    68  C          0.91237000       0.08326830       0.73752000
    69  C          0.88696000       0.46201170       0.12522000
    70  C          0.11304000       0.96201170       0.37478000
    71  C          0.11304000       0.53798830       0.87478000
    72  C          0.88696000       0.03798830       0.62522000
    73  H          0.74530000       0.46290000       0.05400000
    74  H          0.25470000       0.96290000       0.44600000
    75  H          0.25470000       0.53710000       0.94600000
    76  H          0.74530000       0.03710000       0.55400000
    77  H          0.95220000       0.41800000       0.10180000
    78  H          0.04780000       0.91800000       0.39820000
    79  H          0.04780000       0.58200000       0.89820000
    80  H          0.95220000       0.08200000       0.60180000
    81  C          0.96736000       0.56717180       0.14362000
    82  C          0.03264000       0.06717180       0.35638000
    83  C          0.03264000       0.43282820       0.85638000
    84  C          0.96736000       0.93282820       0.64362000
    85  N         -0.00933000       0.62246140       0.24163180
    86  N          0.00933000       0.12246140       0.25836820
    87  N          0.00933000       0.37753860       0.75836820
    88  N         -0.00933000       0.87753860       0.74163180
    89  N          0.94917000       0.48351140       0.32937180
    90  N          0.05083000       0.98351140       0.17062820
    91  N          0.05083000       0.51648860       0.67062820
    92  N          0.94917000       0.01648860       0.82937180
    93  O          0.89387000       0.32680120       0.24849170
    94  O          0.10613000       0.82680120       0.25150830
    95  O          0.10613000       0.67319880       0.75150830
    96  O          0.89387000       0.17319880       0.74849170
    97  O          0.00463000       0.60567140       0.07762160
    98  O         -0.00463000       0.10567140       0.42237840
    99  O         -0.00463000       0.39432860       0.92237840
   100  O          0.00463000       0.89432860       0.57762160
   101  S          0.02166100       0.65853400       0.44911600
   102  S         -0.02166100       0.15853400       0.05088400
   103  S         -0.02166100       0.34146600       0.55088400
   104  S          0.02166100       0.84146600       0.94911600
