data_THBARB02
_symmetry_space_group_name_H-M    'P1'
_symmetry_Int_Tables_number       1
loop_
_symmetry_equiv_pos_site_id
_symmetry_equiv_pos_as_xyz
1 x,y,z
_cell_length_a                   13.27051
_cell_length_b                   13.27051
_cell_length_c                   13.14712
_cell_angle_alpha                90.0
_cell_angle_beta                 90.0
_cell_angle_gamma                90.0
loop_
_atom_site_label
_atom_site_type_symbol
_atom_site_fract_x
_atom_site_fract_y
_atom_site_fract_z
     1  C          0.04244000       0.28444000       0.22104000
     2  C          0.95756000       0.71556000       0.72104000
     3  C          0.71556000       0.04244000       0.47104000
     4  C          0.28444000       0.95756000       0.97104000
     5  C          0.86457000       0.24643000       0.19054000
     6  C          0.13543000       0.75357000       0.69054000
     7  C          0.75357000       0.86457000       0.44054000
     8  C          0.24643000       0.13543000       0.94054000
     9  C          0.88306000       0.13994000       0.22565000
    10  C          0.11694000       0.86006000       0.72565000
    11  C          0.86006000       0.88306000       0.47565000
    12  C          0.13994000       0.11694000       0.97565000
    13  H          0.82910000       0.12110000       0.27150000
    14  H          0.17090000       0.87890000       0.77150000
    15  H          0.87890000       0.82910000       0.52150000
    16  H          0.12110000       0.17090000       0.02150000
    17  H          0.87900000       0.09580000       0.16690000
    18  H          0.12100000       0.90420000       0.66690000
    19  H          0.90420000       0.87900000       0.41690000
    20  H          0.09580000       0.12100000       0.91690000
    21  C          0.98016000       0.12114000       0.27745000
    22  C          0.01984000       0.87886000       0.77745000
    23  C          0.87886000       0.98016000       0.52745000
    24  C          0.12114000       0.01984000       0.02745000
    25  N          0.05383000       0.19193000       0.26394000
    26  N          0.94617000       0.80807000       0.76394000
    27  N          0.80807000       0.05383000       0.51394000
    28  N          0.19193000       0.94617000       0.01394000
    29  H          0.11330000       0.17640000       0.28460000
    30  H          0.88670000       0.82360000       0.78460000
    31  H          0.82360000       0.11330000       0.53460000
    32  H          0.17640000       0.88670000       0.03460000
    33  N          0.94877000       0.30683000       0.18694000
    34  N          0.05123000       0.69317000       0.68694000
    35  N          0.69317000       0.94877000       0.43694000
    36  N          0.30683000       0.05123000       0.93694000
    37  H          0.94110000       0.36540000       0.16010000
    38  H          0.05890000       0.63460000       0.66010000
    39  H          0.63460000       0.94110000       0.41010000
    40  H          0.36540000       0.05890000       0.91010000
    41  O         -0.00353000       0.04483000       0.32704000
    42  O          0.00353000       0.95517000       0.82704000
    43  O          0.95517000      -0.00353000       0.57704000
    44  O          0.04483000       0.00353000       0.07704000
    45  O          0.78207000       0.27853000       0.16553000
    46  O          0.21793000       0.72147000       0.66553000
    47  O          0.72147000       0.78207000       0.41553000
    48  O          0.27853000       0.21793000       0.91553000
    49  S          0.13519100       0.36538110       0.21352130
    50  S          0.86480900       0.63461890       0.71352130
    51  S          0.63461890       0.13519100       0.46352130
    52  S          0.36538110       0.86480900       0.96352130
    53  C          0.54633000       0.12423000       0.18014000
    54  C          0.45367000       0.87577000       0.68014000
    55  C          0.87577000       0.54633000       0.43014000
    56  C          0.12423000       0.45367000       0.93014000
    57  C          0.36984000       0.16824000       0.15744000
    58  C          0.63016000       0.83176000       0.65744000
    59  C          0.83176000       0.36984000       0.40744000
    60  C          0.16824000       0.63016000       0.90744000
    61  C          0.40015000       0.27484000       0.14026000
    62  C          0.59985000       0.72516000       0.64026000
    63  C          0.72516000       0.40015000       0.39026000
    64  C          0.27484000       0.59985000       0.89026000
    65  H          0.35980000       0.31700000       0.18470000
    66  H          0.64020000       0.68300000       0.68470000
    67  H          0.68300000       0.35980000       0.43470000
    68  H          0.31700000       0.64020000       0.93470000
    69  H          0.38270000       0.29250000       0.07080000
    70  H          0.61730000       0.70750000       0.57080000
    71  H          0.70750000       0.38270000       0.32080000
    72  H          0.29250000       0.61730000       0.82080000
    73  C          0.51114000       0.30134000       0.15725000
    74  C          0.48886000       0.69866000       0.65725000
    75  C          0.69866000       0.51114000       0.40725000
    76  C          0.30134000       0.48886000       0.90725000
    77  N          0.44703000       0.10113000       0.17704000
    78  N          0.55297000       0.89887000       0.67704000
    79  N          0.89887000       0.44703000       0.42704000
    80  N          0.10113000       0.55297000       0.92704000
    81  H          0.43060000       0.03940000       0.18820000
    82  H          0.56940000       0.96060000       0.68820000
    83  H          0.96060000       0.43060000       0.43820000
    84  H          0.03940000       0.56940000       0.93820000
    85  N          0.57333000       0.22203000       0.17304000
    86  N          0.42667000       0.77797000       0.67304000
    87  N          0.77797000       0.57333000       0.42304000
    88  N          0.22203000       0.42667000       0.92304000
    89  H          0.63650000       0.23530000       0.17920000
    90  H          0.36350000       0.76470000       0.67920000
    91  H          0.76470000       0.63650000       0.42920000
    92  H          0.23530000       0.36350000       0.92920000
    93  O          0.28433000       0.13973000       0.15454000
    94  O          0.71567000       0.86027000       0.65454000
    95  O          0.86027000       0.28433000       0.40454000
    96  O          0.13973000       0.71567000       0.90454000
    97  O          0.54133000       0.38633000       0.16114000
    98  O          0.45867000       0.61367000       0.66114000
    99  O          0.61367000       0.54133000       0.41114000
   100  O          0.38633000       0.45867000       0.91114000
   101  S          0.63232100       0.03430100       0.19660120
   102  S          0.36767900       0.96569900       0.69660120
   103  S          0.96569900       0.63232100       0.44660120
   104  S          0.03430100       0.36767900       0.94660120
   105  C          0.88494000       0.78523000       0.16374000
   106  C          0.11506000       0.21477000       0.66374000
   107  C          0.21477000       0.88494000       0.41374000
   108  C          0.78523000       0.11506000       0.91374000
   109  C          0.92534000       0.60753000       0.18724000
   110  C          0.07466000       0.39247000       0.68724000
   111  C          0.39247000       0.92534000       0.43724000
   112  C          0.60753000       0.07466000       0.93724000
   113  C          0.03474000       0.63134000       0.17974000
   114  C          0.96526000       0.36866000       0.67974000
   115  C          0.36866000       0.03474000       0.42974000
   116  C          0.63134000       0.96526000       0.92974000
   117  H          0.06420000       0.58690000       0.12930000
   118  H          0.93580000       0.41310000       0.62930000
   119  H          0.41310000       0.06420000       0.37930000
   120  H          0.58690000       0.93580000       0.87930000
   121  H          0.06570000       0.61540000       0.24460000
   122  H          0.93430000       0.38460000       0.74460000
   123  H          0.38460000       0.06570000       0.49460000
   124  H          0.61540000       0.93430000      -0.00540000
   125  C          0.06244000       0.73794000       0.15264000
   126  C          0.93756000       0.26206000       0.65264000
   127  C          0.26206000       0.06244000       0.40264000
   128  C          0.73794000       0.93756000       0.90264000
   129  N          0.85893000       0.68863000       0.18493000
   130  N          0.14107000       0.31137000       0.68493000
   131  N          0.31137000       0.85893000       0.43493000
   132  N          0.68863000       0.14107000       0.93493000
   133  H          0.79650000       0.67660000       0.19780000
   134  H          0.20350000       0.32340000       0.69780000
   135  H          0.32340000       0.79650000       0.44780000
   136  H          0.67660000       0.20350000       0.94780000
   137  N          0.98643000       0.80493000       0.14674000
   138  N          0.01357000       0.19507000       0.64674000
   139  N          0.19507000       0.98643000       0.39674000
   140  N          0.80493000       0.01357000       0.89674000
   141  H          0.00210000       0.86580000       0.13090000
   142  H         -0.00210000       0.13420000       0.63090000
   143  H          0.13420000       0.00210000       0.38090000
   144  H          0.86580000      -0.00210000       0.88090000
   145  O          0.89333000       0.52353000       0.19753000
   146  O          0.10667000       0.47647000       0.69753000
   147  O          0.47647000       0.89333000       0.44753000
   148  O          0.52353000       0.10667000       0.94753000
   149  O          0.14813000       0.76283000       0.13744000
   150  O          0.85187000       0.23717000       0.63744000
   151  O          0.23717000       0.14813000       0.38744000
   152  O          0.76283000       0.85187000       0.88744000
   153  S          0.80131110       0.87502110       0.15598160
   154  S          0.19868890       0.12497890       0.65598160
   155  S          0.12497890       0.80131110       0.40598160
   156  S          0.87502110       0.19868890       0.90598160
   157  C          0.38674000       0.62024000       0.18604000
   158  C          0.61326000       0.37976000       0.68604000
   159  C          0.37976000       0.38674000       0.43604000
   160  C          0.62024000       0.61326000       0.93604000
   161  C          0.56494000       0.66164000       0.19934000
   162  C          0.43506000       0.33836000       0.69934000
   163  C          0.33836000       0.56494000       0.44934000
   164  C          0.66164000       0.43506000       0.94934000
   165  C          0.53754000       0.76644000       0.22725000
   166  C          0.46246000       0.23356000       0.72725000
   167  C          0.23356000       0.53754000       0.47725000
   168  C          0.76644000       0.46246000       0.97725000
   169  H          0.57960000       0.81160000       0.18780000
   170  H          0.42040000       0.18840000       0.68780000
   171  H          0.18840000       0.57960000       0.43780000
   172  H          0.81160000       0.42040000       0.93780000
   173  H          0.55470000       0.77620000       0.29830000
   174  H          0.44530000       0.22380000       0.79830000
   175  H          0.22380000       0.55470000       0.54830000
   176  H          0.77620000       0.44530000       0.04830000
   177  C          0.42964000       0.79844000       0.21294000
   178  C          0.57036000       0.20156000       0.71294000
   179  C          0.20156000       0.42964000       0.46294000
   180  C          0.79844000       0.57036000       0.96294000
   181  N          0.48523000       0.59643000       0.19154000
   182  N          0.51477000       0.40357000       0.69154000
   183  N          0.40357000       0.48523000       0.44154000
   184  N          0.59643000       0.51477000       0.94154000
   185  H          0.49970000       0.53330000       0.19000000
   186  H          0.50030000       0.46670000       0.69000000
   187  H          0.46670000       0.49970000       0.44000000
   188  H          0.53330000       0.50030000       0.94000000
   189  N          0.36333000       0.71923000       0.19644000
   190  N          0.63667000       0.28077000       0.69644000
   191  N          0.28077000       0.36333000       0.44644000
   192  N          0.71923000       0.63667000       0.94644000
   193  H          0.30050000       0.73460000       0.19220000
   194  H          0.69950000       0.26540000       0.69220000
   195  H          0.26540000       0.30050000       0.44220000
   196  H          0.73460000       0.69950000       0.94220000
   197  O          0.65023000       0.63133000       0.18964000
   198  O          0.34977000       0.36867000       0.68964000
   199  O          0.36867000       0.65023000       0.43964000
   200  O          0.63133000       0.34977000       0.93964000
   201  O          0.39923000       0.88433000       0.21914000
   202  O          0.60077000       0.11567000       0.71914000
   203  O          0.11567000       0.39923000       0.46914000
   204  O          0.88433000       0.60077000       0.96914000
   205  S          0.29720100       0.53467100       0.17491180
   206  S          0.70279900       0.46532900       0.67491180
   207  S          0.46532900       0.29720100       0.42491180
   208  S          0.53467100       0.70279900       0.92491180
