data_THBARB01
_symmetry_space_group_name_H-M    'P1'
_symmetry_Int_Tables_number       1
loop_
_symmetry_equiv_pos_site_id
_symmetry_equiv_pos_as_xyz
1 x,y,z
_cell_length_a                   9.52303
_cell_length_b                   7.70252
_cell_length_c                   8.00243
_cell_angle_alpha                90.0
_cell_angle_beta                 105.6774
_cell_angle_gamma                90.0
loop_
_atom_site_label
_atom_site_type_symbol
_atom_site_fract_x
_atom_site_fract_y
_atom_site_fract_z
     1  H          0.10440000       0.21540000       0.19940000
     2  H          0.89560000       0.71540000       0.30060000
     3  H          0.89560000       0.78460000       0.80060000
     4  H          0.10440000       0.28460000       0.69940000
     5  H          0.42730000       0.37340000       0.05240000
     6  H          0.57270000       0.87340000       0.44760000
     7  H          0.57270000       0.62660000       0.94760000
     8  H          0.42730000       0.12660000       0.55240000
     9  S          0.32739600       0.05497600       0.11572700
    10  S          0.67260400       0.55497600       0.38427300
    11  S          0.67260400       0.94502400       0.88427300
    12  S          0.32739600       0.44502400       0.61572700
    13  O          0.38840170       0.67333180       0.02952000
    14  O          0.61159830       0.17333180       0.47048000
    15  O          0.61159830       0.32666820       0.97048000
    16  O          0.38840170       0.82666820       0.52952000
    17  N          0.35412190       0.39182000       0.08382000
    18  N          0.64587810       0.89182000       0.41618000
    19  N          0.64587810       0.60818000       0.91618000
    20  N          0.35412190       0.10818000       0.58382000
    21  O         -0.01025170       0.49082000       0.22322000
    22  O          0.01025170      -0.00918000       0.27678000
    23  O          0.01025170       0.50918000       0.77678000
    24  O         -0.01025170       0.00918000       0.72322000
    25  N          0.15446180       0.30082000       0.17552000
    26  N          0.84553820       0.80082000       0.32448000
    27  N          0.84553820       0.69918000       0.82448000
    28  N          0.15446180       0.19918000       0.67552000
    29  C          0.27752000       0.25732000       0.12722000
    30  C          0.72248000       0.75732000       0.37278000
    31  C          0.72248000       0.74268000       0.87278000
    32  C          0.27752000       0.24268000       0.62722000
    33  C          0.20512000       0.61142000       0.17203000
    34  C          0.79488000       0.11142000       0.32797000
    35  C          0.79488000       0.38858000       0.82797000
    36  C          0.20512000       0.88858000       0.67203000
    37  H          0.14610000       0.70300000       0.10460000
    38  H          0.85390000       0.20300000       0.39540000
    39  H          0.85390000       0.29700000       0.89540000
    40  H          0.14610000       0.79700000       0.60460000
    41  H          0.25120000       0.65830000       0.28610000
    42  H          0.74880000       0.15830000       0.21390000
    43  H          0.74880000       0.34170000       0.71390000
    44  H          0.25120000       0.84170000       0.78610000
    45  C          0.10592000       0.46672000       0.19223000
    46  C          0.89408000       0.96672000       0.30777000
    47  C          0.89408000       0.53328000       0.80777000
    48  C          0.10592000       0.03328000       0.69223000
    49  C          0.32152000       0.56512000       0.08762000
    50  C          0.67848000       0.06512000       0.41238000
    51  C          0.67848000       0.43488000       0.91238000
    52  C          0.32152000       0.93488000       0.58762000
