data_TITVAU02
_symmetry_space_group_name_H-M    'P1'
_symmetry_Int_Tables_number       1
loop_
_symmetry_equiv_pos_site_id
_symmetry_equiv_pos_as_xyz
1 x,y,z
_cell_length_a                   5.97604
_cell_length_b                   23.9282
_cell_length_c                   13.32231
_cell_angle_alpha                90.0
_cell_angle_beta                 93.0476
_cell_angle_gamma                90.0
loop_
_atom_site_label
_atom_site_type_symbol
_atom_site_fract_x
_atom_site_fract_y
_atom_site_fract_z
     1  C          0.51169000       0.31092000       0.57114000
     2  C          0.48831000       0.81092000       0.92886000
     3  C          0.48831000       0.68908000       0.42886000
     4  C          0.51169000       0.18908000       0.07114000
     5  H          0.37040000       0.29490000       0.57450000
     6  H          0.62960000       0.79490000       0.92550000
     7  H          0.62960000       0.70510000       0.42550000
     8  H          0.37040000       0.20510000       0.07450000
     9  C          0.68839000       0.27692000       0.54854000
    10  C          0.31161000       0.77692000       0.95146000
    11  C          0.31161000       0.72308000       0.45146000
    12  C          0.68839000       0.22308000       0.04854000
    13  H          0.66250000       0.23900000       0.53700000
    14  H          0.33750000       0.73900000       0.96300000
    15  H          0.33750000       0.76100000       0.46300000
    16  H          0.66250000       0.26100000       0.03700000
    17  C          0.91829000       0.35182000       0.56104000
    18  C          0.08171000       0.85182000       0.93896000
    19  C          0.08171000       0.64818000       0.43896000
    20  C          0.91829000       0.14818000       0.06104000
    21  H          0.05960000       0.36770000       0.55830000
    22  H          0.94040000       0.86770000       0.94170000
    23  H          0.94040000       0.63230000       0.44170000
    24  H          0.05960000       0.13230000       0.05830000
    25  C          0.74169000       0.38592000       0.58374000
    26  C          0.25831000       0.88592000       0.91626000
    27  C          0.25831000       0.61408000       0.41626000
    28  C          0.74169000       0.11408000       0.08374000
    29  C          0.78041000       0.44742000       0.60194000
    30  C          0.21959000       0.94742000       0.89806000
    31  C          0.21959000       0.55258000       0.39806000
    32  C          0.78041000       0.05258000       0.10194000
    33  C          0.57308000       0.53412000       0.63724000
    34  C          0.42692000       0.03412000       0.86276000
    35  C          0.42692000       0.46588000       0.36276000
    36  C          0.57308000       0.96588000       0.13724000
    37  C          0.74689000       0.57262000       0.62484000
    38  C          0.25311000       0.07262000       0.87516000
    39  C          0.25311000       0.42738000       0.37516000
    40  C          0.74689000       0.92738000       0.12484000
    41  H          0.88210000       0.56060000       0.60080000
    42  H          0.11790000       0.06060000       0.89920000
    43  H          0.11790000       0.43940000       0.39920000
    44  H          0.88210000       0.93940000       0.10080000
    45  C          0.71651000       0.62792000       0.64814000
    46  C          0.28349000       0.12792000       0.85186000
    47  C          0.28349000       0.37208000       0.35186000
    48  C          0.71651000       0.87208000       0.14814000
    49  H          0.83200000       0.65350000       0.64160000
    50  H          0.16800000       0.15350000       0.85840000
    51  H          0.16800000       0.34650000       0.35840000
    52  H          0.83200000       0.84650000       0.14160000
    53  C          0.51369000       0.64512000       0.68114000
    54  C          0.48631000       0.14512000       0.81886000
    55  C          0.48631000       0.35488000       0.31886000
    56  C          0.51369000       0.85488000       0.18114000
    57  C          0.33969000       0.60922000       0.69274000
    58  C          0.66031000       0.10922000       0.80726000
    59  C          0.66031000       0.39078000       0.30726000
    60  C          0.33969000       0.89078000       0.19274000
    61  H          0.20370000       0.62190000       0.71490000
    62  H          0.79630000       0.12190000       0.78510000
    63  H          0.79630000       0.37810000       0.28510000
    64  H          0.20370000       0.87810000       0.21490000
    65  C          0.37119000       0.55322000       0.67034000
    66  C          0.62881000       0.05322000       0.82966000
    67  C          0.62881000       0.44678000       0.32966000
    68  C          0.37119000       0.94678000       0.17034000
    69  H          0.25460000       0.52810000       0.67780000
    70  H          0.74540000       0.02810000       0.82220000
    71  H          0.74540000       0.47190000       0.32220000
    72  H          0.25460000       0.97190000       0.17780000
    73  N          0.53288000       0.36504170       0.58823000
    74  N          0.46712000       0.86504170       0.91177000
    75  N          0.46712000       0.63495830       0.41177000
    76  N          0.53288000       0.13495830       0.08823000
    77  N          0.89678000       0.29708180       0.54273000
    78  N          0.10322000       0.79708180       0.95727000
    79  N          0.10322000       0.70291820       0.45727000
    80  N          0.89678000       0.20291820       0.04273000
    81  N          0.59218000       0.47615180       0.61693000
    82  N          0.40782000       0.97615180       0.88307000
    83  N          0.40782000       0.52384820       0.38307000
    84  N          0.59218000       0.02384820       0.11693000
    85  H          0.46930000       0.45730000       0.61380000
    86  H          0.53070000       0.95730000       0.88620000
    87  H          0.53070000       0.54270000       0.38620000
    88  H          0.46930000       0.04270000       0.11380000
    89  O          0.97016000       0.46587150       0.60443000
    90  O          0.02984000       0.96587150       0.89557000
    91  O          0.02984000       0.53412850       0.39557000
    92  O          0.97016000       0.03412850       0.10443000
    93  F          0.48936000       0.70003120       0.70563000
    94  F          0.51064000       0.20003120       0.79437000
    95  F          0.51064000       0.29996880       0.29437000
    96  F          0.48936000       0.79996880       0.20563000
    97  C         -0.00379000       0.63442000       0.91084000
    98  C          0.00379000       0.13442000       0.58916000
    99  C          0.00379000       0.36558000       0.08916000
   100  C         -0.00379000       0.86558000       0.41084000
   101  H          0.13710000       0.65050000       0.90660000
   102  H          0.86290000       0.15050000       0.59340000
   103  H          0.86290000       0.34950000       0.09340000
   104  H          0.13710000       0.84950000       0.40660000
   105  C          0.81969000       0.66772000       0.93454000
   106  C          0.18031000       0.16772000       0.56546000
   107  C          0.18031000       0.33228000       0.06546000
   108  C          0.81969000       0.83228000       0.43454000
   109  H          0.84560000       0.70550000       0.94700000
   110  H          0.15440000       0.20550000       0.55300000
   111  H          0.15440000       0.29450000       0.05300000
   112  H          0.84560000       0.79450000       0.44700000
   113  C          0.58789000       0.59352000       0.92314000
   114  C          0.41211000       0.09352000       0.57686000
   115  C          0.41211000       0.40648000       0.07686000
   116  C          0.58789000       0.90648000       0.42314000
   117  H          0.44640000       0.57760000       0.92640000
   118  H          0.55360000       0.07760000       0.57360000
   119  H          0.55360000       0.42240000       0.07360000
   120  H          0.44640000       0.92240000       0.42640000
   121  C          0.76519000       0.55952000       0.90064000
   122  C          0.23481000       0.05952000       0.59936000
   123  C          0.23481000       0.44048000       0.09936000
   124  C          0.76519000       0.94048000       0.40064000
   125  C          0.72211000       0.49882000       0.88014000
   126  C          0.27789000      -0.00118000       0.61986000
   127  C          0.27789000       0.50118000       0.11986000
   128  C          0.72211000       0.00118000       0.38014000
   129  C          0.92979000       0.41152000       0.84234000
   130  C          0.07021000       0.91152000       0.65766000
   131  C          0.07021000       0.58848000       0.15766000
   132  C          0.92979000       0.08848000       0.34234000
   133  C          0.75739000       0.37352000       0.85414000
   134  C          0.24261000       0.87352000       0.64586000
   135  C          0.24261000       0.62648000       0.14586000
   136  C          0.75739000       0.12648000       0.35414000
   137  H          0.62030000       0.38570000       0.87580000
   138  H          0.37970000       0.88570000       0.62420000
   139  H          0.37970000       0.61430000       0.12420000
   140  H          0.62030000       0.11430000       0.37580000
   141  C          0.78961000       0.31662000       0.83334000
   142  C          0.21039000       0.81662000       0.66666000
   143  C          0.21039000       0.68338000       0.16666000
   144  C          0.78961000       0.18338000       0.33334000
   145  H          0.67550000       0.29090000       0.84190000
   146  H          0.32450000       0.79090000       0.65810000
   147  H          0.32450000       0.70910000       0.15810000
   148  H          0.67550000       0.20910000       0.34190000
   149  C         -0.00889000       0.29962000       0.80024000
   150  C          0.00889000       0.79962000       0.69976000
   151  C          0.00889000       0.70038000       0.19976000
   152  C         -0.00889000       0.20038000       0.30024000
   153  C          0.16611000       0.33642000       0.78994000
   154  C          0.83389000       0.83642000       0.71006000
   155  C          0.83389000       0.66358000       0.21006000
   156  C          0.16611000       0.16358000       0.28994000
   157  H          0.30330000       0.32360000       0.76930000
   158  H          0.69670000       0.82360000       0.73070000
   159  H          0.69670000       0.67640000       0.23070000
   160  H          0.30330000       0.17640000       0.26930000
   161  C          0.13559000       0.39272000       0.81064000
   162  C          0.86441000       0.89272000       0.68936000
   163  C          0.86441000       0.60728000       0.18936000
   164  C          0.13559000       0.10728000       0.31064000
   165  H          0.25220000       0.41780000       0.80330000
   166  H          0.74780000       0.91780000       0.69670000
   167  H          0.74780000       0.58220000       0.19670000
   168  H          0.25220000       0.08220000       0.30330000
   169  N          0.97188000       0.57927190       0.89343000
   170  N          0.02812000       0.07927190       0.60657000
   171  N          0.02812000       0.42072810       0.10657000
   172  N          0.97188000       0.92072810       0.39343000
   173  N          0.61098000       0.64789170       0.94033000
   174  N          0.38902000       0.14789170       0.55967000
   175  N          0.38902000       0.35210830       0.05967000
   176  N          0.61098000       0.85210830       0.44033000
   177  N          0.91077000       0.46892170       0.86443000
   178  N          0.08923000       0.96892170       0.63557000
   179  N          0.08923000       0.53107830       0.13557000
   180  N          0.91077000       0.03107830       0.36443000
   181  H          0.03430000       0.48740000       0.86850000
   182  H          0.96570000       0.98740000       0.63150000
   183  H          0.96570000       0.51260000       0.13150000
   184  H          0.03430000       0.01260000       0.36850000
   185  O          0.53466000       0.47906150       0.88023000
   186  O          0.46534000       0.97906150       0.61977000
   187  O          0.46534000       0.52093850       0.11977000
   188  O          0.53466000       0.02093850       0.38023000
   189  F          0.02056000       0.24490120       0.77823000
   190  F         -0.02056000       0.74490120       0.72177000
   191  F         -0.02056000       0.75509880       0.22177000
   192  F          0.02056000       0.25509880       0.27823000
