data_TITVAU
_symmetry_space_group_name_H-M    'P1'
_symmetry_Int_Tables_number       1
loop_
_symmetry_equiv_pos_site_id
_symmetry_equiv_pos_as_xyz
1 x,y,z
_cell_length_a                   11.7182
_cell_length_b                   5.97261
_cell_length_c                   13.4742
_cell_angle_alpha                90.0
_cell_angle_beta                 91.4469
_cell_angle_gamma                90.0
loop_
_atom_site_label
_atom_site_type_symbol
_atom_site_fract_x
_atom_site_fract_y
_atom_site_fract_z
     1  N          0.28433000       0.29705000       0.33622000
     2  N          0.71567000       0.79705000       0.16378000
     3  N          0.71567000       0.70295000       0.66378000
     4  N          0.28433000       0.20295000       0.83622000
     5  C          0.32393000       0.50656000       0.33503000
     6  C          0.67607000       0.00656000       0.16497000
     7  C          0.67607000       0.49344000       0.66497000
     8  C          0.32393000      -0.00656000       0.83503000
     9  C          0.25453000       0.68896000       0.31303000
    10  C          0.74547000       0.18896000       0.18697000
    11  C          0.74547000       0.31104000       0.68697000
    12  C          0.25453000       0.81104000       0.81303000
    13  N          0.14333000       0.66715000       0.29122000
    14  N          0.85667000       0.16715000       0.20878000
    15  N          0.85667000       0.33285000       0.70878000
    16  N          0.14333000       0.83285000       0.79122000
    17  C          0.10333000       0.45716000       0.29253000
    18  C          0.89667000       0.95716000       0.20747000
    19  C          0.89667000       0.54284000       0.70747000
    20  C          0.10333000       0.04284000       0.79253000
    21  C          0.17263000       0.27576000       0.31483000
    22  C          0.82737000       0.77576000       0.18517000
    23  C          0.82737000       0.72424000       0.68517000
    24  C          0.17263000       0.22424000       0.81483000
    25  C          0.44913000       0.54436000       0.35823000
    26  C          0.55087000       0.04436000       0.14177000
    27  C          0.55087000       0.45564000       0.64177000
    28  C          0.44913000       0.95564000       0.85823000
    29  O          0.48902000       0.73544000       0.35722000
    30  O          0.51098000       0.23544000       0.14278000
    31  O          0.51098000       0.26456000       0.64278000
    32  O          0.48902000       0.76456000       0.85722000
    33  N          0.50802000       0.35615000       0.38162000
    34  N          0.49198000       0.85615000       0.11838000
    35  N          0.49198000       0.64385000       0.61838000
    36  N          0.50802000       0.14385000       0.88162000
    37  C          0.62493000       0.33516000       0.40593000
    38  C          0.37507000       0.83516000       0.09407000
    39  C          0.37507000       0.66484000       0.59407000
    40  C          0.62493000       0.16484000       0.90593000
    41  C          0.70313000       0.50956000       0.39823000
    42  C          0.29687000       0.00956000       0.10177000
    43  C          0.29687000       0.49044000       0.60177000
    44  C          0.70313000      -0.00956000       0.89823000
    45  C          0.81723000       0.47436000       0.42183000
    46  C          0.18277000       0.97436000       0.07817000
    47  C          0.18277000       0.52564000       0.57817000
    48  C          0.81723000       0.02564000       0.92183000
    49  C          0.85273000       0.26556000       0.45413000
    50  C          0.14727000       0.76556000       0.04587000
    51  C          0.14727000       0.73444000       0.54587000
    52  C          0.85273000       0.23444000       0.95413000
    53  F          0.96520180       0.23293000       0.47752180
    54  F          0.03479820       0.73293000       0.02247820
    55  F          0.03479820       0.76707000       0.52247820
    56  F          0.96520180       0.26707000       0.97752180
    57  C          0.77833000       0.09056000       0.46313000
    58  C          0.22167000       0.59056000       0.03687000
    59  C          0.22167000       0.90944000       0.53687000
    60  C          0.77833000       0.40944000       0.96313000
    61  C          0.66383000       0.12516000       0.43843000
    62  C          0.33617000       0.62516000       0.06157000
    63  C          0.33617000       0.87484000       0.56157000
    64  C          0.66383000       0.37484000       0.93843000
    65  H          0.28730000       0.83450000       0.31350000
    66  H          0.71270000       0.33450000       0.18650000
    67  H          0.71270000       0.16550000       0.68650000
    68  H          0.28730000       0.66550000       0.81350000
    69  H          0.02470000       0.43190000       0.27770000
    70  H          0.97530000       0.93190000       0.22230000
    71  H          0.97530000       0.56810000       0.72230000
    72  H          0.02470000       0.06810000       0.77770000
    73  H          0.13980000       0.13030000       0.31490000
    74  H          0.86020000       0.63030000       0.18510000
    75  H          0.86020000       0.86970000       0.68510000
    76  H          0.13980000       0.36970000       0.81490000
    77  H          0.45600000       0.22680000       0.37620000
    78  H          0.54400000       0.72680000       0.12380000
    79  H          0.54400000       0.77320000       0.62380000
    80  H          0.45600000       0.27320000       0.87620000
    81  H          0.67800000       0.65320000       0.37670000
    82  H          0.32200000       0.15320000       0.12330000
    83  H          0.32200000       0.34680000       0.62330000
    84  H          0.67800000       0.84680000       0.87670000
    85  H          0.87070000       0.59270000       0.41580000
    86  H          0.12930000       0.09270000       0.08420000
    87  H          0.12930000       0.40730000       0.58420000
    88  H          0.87070000       0.90730000       0.91580000
    89  H          0.80440000       0.94840000       0.48580000
    90  H          0.19560000       0.44840000       0.01420000
    91  H          0.19560000       0.05160000       0.51420000
    92  H          0.80440000       0.55160000       0.98580000
    93  H          0.61120000       0.00480000       0.44350000
    94  H          0.38880000       0.50480000       0.05650000
    95  H          0.38880000      -0.00480000       0.55650000
    96  H          0.61120000       0.49520000       0.94350000
