data_TITVAU01
_symmetry_space_group_name_H-M    'P1'
_symmetry_Int_Tables_number       1
loop_
_symmetry_equiv_pos_site_id
_symmetry_equiv_pos_as_xyz
1 x,y,z
_cell_length_a                   5.96663
_cell_length_b                   24.220515
_cell_length_c                   13.02627
_cell_angle_alpha                90.0
_cell_angle_beta                 91.7203
_cell_angle_gamma                90.0
loop_
_atom_site_label
_atom_site_type_symbol
_atom_site_fract_x
_atom_site_fract_y
_atom_site_fract_z
     1  N          0.35155000       0.07590130       0.17532000
     2  N          0.35155000       0.92409870       0.67532000
     3  C          0.14146000       0.09398160       0.18823000
     4  C          0.14146000       0.90601840       0.68823000
     5  C          0.95963000       0.05824160       0.18973000
     6  C          0.95963000       0.94175840       0.68973000
     7  N         -0.01846000       0.00369140       0.17753000
     8  N         -0.01846000      -0.00369140       0.67753000
     9  C          0.19077000       0.98586840       0.16433000
    10  C          0.19077000       0.01413160       0.66433000
    11  C          0.37317000       0.02158160       0.16363000
    12  C          0.37317000       0.97841840       0.66363000
    13  C          0.10426000       0.15475170       0.20353000
    14  C          0.10426000       0.84524830       0.70353000
    15  O          0.91266000       0.17274120       0.21502000
    16  O          0.91266000       0.82725880       0.71502000
    17  N          0.29145000       0.18555130       0.20102000
    18  N          0.29145000       0.81444870       0.70102000
    19  C          0.31246000       0.24344160       0.21373000
    20  C          0.31246000       0.75655840       0.71373000
    21  C          0.14027000       0.27688170       0.24833000
    22  C          0.14027000       0.72311830       0.74833000
    23  C          0.17377000       0.33316160       0.25963000
    24  C          0.17377000       0.66683840       0.75963000
    25  C          0.37917000       0.35494160       0.23663000
    26  C          0.37917000       0.64505840       0.73663000
    27  F          0.41344000       0.41070900       0.24718190
    28  F          0.41344000       0.58929100       0.74718190
    29  C          0.55306000       0.32297170       0.20373000
    30  C          0.55306000       0.67702830       0.70373000
    31  C          0.51896000       0.26675160       0.19203000
    32  C          0.51896000       0.73324840       0.69203000
    33  H          0.81460000       0.07310000       0.19980000
    34  H          0.81460000       0.92690000       0.69980000
    35  H          0.21560000       0.94750000       0.15500000
    36  H          0.21560000       0.05250000       0.65500000
    37  H          0.51840000       0.00670000       0.15440000
    38  H          0.51840000       0.99330000       0.65440000
    39  H          0.41730000       0.16720000       0.19420000
    40  H          0.41730000       0.83280000       0.69420000
    41  H         -0.00030000       0.26110000       0.26410000
    42  H         -0.00030000       0.73890000       0.76410000
    43  H          0.05710000       0.35630000       0.28290000
    44  H          0.05710000       0.64370000       0.78290000
    45  H          0.69380000       0.33910000       0.18920000
    46  H          0.69380000       0.66090000       0.68920000
    47  H          0.63700000       0.24400000       0.16910000
    48  H          0.63700000       0.75600000       0.66910000
    49  N          0.39365000       0.37864130       0.49202000
    50  N          0.39365000       0.62135870      -0.00798000
    51  C          0.60307000       0.36050160       0.48533000
    52  C          0.60307000       0.63949840       0.98533000
    53  C          0.78567000       0.39534160       0.48703000
    54  C          0.78567000       0.60465840       0.98703000
    55  N          0.76505000       0.45039130       0.49673000
    56  N          0.76505000       0.54960870      -0.00327000
    57  C          0.55397000       0.46873170       0.50363000
    58  C          0.55397000       0.53126830       0.00363000
    59  C          0.37227000       0.43333170       0.50153000
    60  C          0.37227000       0.56666830       0.00153000
    61  C          0.64226000       0.29927150       0.47373000
    62  C          0.64226000       0.70072850       0.97373000
    63  O          0.83475000       0.28133110       0.46782000
    64  O          0.83475000       0.71866890       0.96782000
    65  N          0.45455000       0.26840130       0.47132000
    66  N          0.45455000       0.73159870       0.97132000
    67  C          0.43476000       0.21056150       0.45873000
    68  C          0.43476000       0.78943850       0.95873000
    69  C          0.60886000       0.17798160       0.42493000
    70  C          0.60886000       0.82201840       0.92493000
    71  C          0.57666000       0.12160160       0.41323000
    72  C          0.57666000       0.87839840       0.91323000
    73  C          0.37396000       0.09897150       0.43503000
    74  C          0.37396000       0.90102850       0.93503000
    75  F          0.34354000       0.04361900       0.42357180
    76  F          0.34354000       0.95638100       0.92357180
    77  C          0.19626000       0.13036170       0.46823000
    78  C          0.19626000       0.86963830       0.96823000
    79  C          0.22896000       0.18641160       0.48053000
    80  C          0.22896000       0.81358840       0.98053000
    81  H          0.93110000       0.37990000       0.48120000
    82  H          0.93110000       0.62010000       0.98120000
    83  H          0.52850000       0.50730000       0.51010000
    84  H          0.52850000       0.49270000       0.01010000
    85  H          0.22620000       0.44850000       0.50710000
    86  H          0.22620000       0.55150000       0.00710000
    87  H          0.33310000       0.28840000       0.47930000
    88  H          0.33310000       0.71160000       0.97930000
    89  H          0.74910000       0.19420000       0.40980000
    90  H          0.74910000       0.80580000       0.90980000
    91  H          0.69470000       0.09890000       0.39020000
    92  H          0.69470000       0.90110000       0.89020000
    93  H          0.05600000       0.11380000       0.48210000
    94  H          0.05600000       0.88620000       0.98210000
    95  H          0.11030000       0.20880000       0.50410000
    96  H          0.11030000       0.79120000       0.00410000
    97  N          0.86106000       0.21272130       0.70682000
    98  N          0.86106000       0.78727870       0.20682000
    99  C          0.65207000       0.23102170       0.71793000
   100  C          0.65207000       0.76897830       0.21793000
   101  C          0.46876000       0.19582160       0.71763000
   102  C          0.46876000       0.80417840       0.21763000
   103  N          0.48996000       0.14094140       0.70643000
   104  N          0.48996000       0.85905860       0.20643000
   105  C          0.70007000       0.12284170       0.69473000
   106  C          0.70007000       0.87715830       0.19473000
   107  C          0.88287000       0.15823160       0.69543000
   108  C          0.88287000       0.84176840       0.19543000
   109  C          0.61496000       0.29188170       0.73023000
   110  C          0.61496000       0.70811830       0.23023000
   111  O          0.42364000       0.31069110       0.73622000
   112  O          0.42364000       0.68930890       0.23622000
   113  N          0.80565000       0.32238130       0.73312000
   114  N          0.80565000       0.67761870       0.23312000
   115  C          0.82827000       0.38047160       0.74133000
   116  C          0.82827000       0.61952840       0.24133000
   117  C          0.65056000       0.41461160       0.76913000
   118  C          0.65056000       0.58538840       0.26913000
   119  C          0.68316000       0.47105160       0.77523000
   120  C          0.68316000       0.52894840       0.27523000
   121  C          0.88997000       0.49237150       0.75263000
   122  C          0.88997000       0.50762850       0.25263000
   123  F          0.91944000       0.54847900       0.75642000
   124  F          0.91944000       0.45152100       0.25642000
   125  C          0.06776000       0.46003170       0.72573000
   126  C          0.06776000       0.53996830       0.22573000
   127  C          0.03357000       0.40310160       0.71963000
   128  C          0.03357000       0.59689840       0.21963000
   129  H          0.32340000       0.21100000       0.72560000
   130  H          0.32340000       0.78900000       0.22560000
   131  H          0.72450000       0.08440000       0.68550000
   132  H          0.72450000       0.91560000       0.18550000
   133  H          0.02830000       0.14320000       0.68760000
   134  H          0.02830000       0.85680000       0.18760000
   135  H          0.93130000       0.30470000       0.72160000
   136  H          0.93130000       0.69530000       0.22160000
   137  H          0.50870000       0.39910000       0.78370000
   138  H          0.50870000       0.60090000       0.28370000
   139  H          0.56480000       0.49470000       0.79470000
   140  H          0.56480000       0.50530000       0.29470000
   141  H          0.20920000       0.47590000       0.71170000
   142  H          0.20920000       0.52410000       0.21170000
   143  H          0.15290000       0.37970000       0.70040000
   144  H          0.15290000       0.62030000       0.20040000
   145  N          0.91325000       0.33130140      -0.00838000
   146  N          0.91325000       0.66869860       0.49162000
   147  C          0.12176000       0.31359160       0.97623000
   148  C          0.12176000       0.68640840       0.47623000
   149  C          0.30287000       0.34930160       0.97353000
   150  C          0.30287000       0.65069840       0.47353000
   151  N          0.28016000       0.40379140       0.98673000
   152  N          0.28016000       0.59620860       0.48673000
   153  C          0.07197000       0.42164170       0.00193000
   154  C          0.07197000       0.57835830       0.50193000
   155  C          0.89076000       0.38583160       0.00523000
   156  C          0.89076000       0.61416840       0.50523000
   157  C          0.16037000       0.25279160       0.96183000
   158  C          0.16037000       0.74720840       0.46183000
   159  O          0.34904000       0.23480110       0.94952000
   160  O          0.34904000       0.76519890       0.44952000
   161  N          0.97075000       0.22207130       0.96393000
   162  N          0.97075000       0.77792870       0.46393000
   163  C          0.94856000       0.16455150       0.95303000
   164  C          0.94856000       0.83544850       0.45303000
   165  C          0.12286000       0.13037160       0.92083000
   166  C          0.12286000       0.86962840       0.42083000
   167  C          0.08516000       0.07398170       0.90983000
   168  C          0.08516000       0.92601830       0.40983000
   169  C          0.87827000       0.05219160       0.92963000
   170  C          0.87827000       0.94780840       0.42963000
   171  F          0.84494000      -0.00270900       0.91972000
   172  F          0.84494000       0.00270900       0.41972000
   173  C          0.70616000       0.08510170       0.96123000
   174  C          0.70616000       0.91489830       0.46123000
   175  C          0.73876000       0.14112160       0.97313000
   176  C          0.73876000       0.85887840       0.47313000
   177  H          0.44760000       0.33470000       0.96200000
   178  H          0.44760000       0.66530000       0.46200000
   179  H          0.04710000       0.46010000       0.01070000
   180  H          0.04710000       0.53990000       0.51070000
   181  H          0.74620000       0.40040000       0.01760000
   182  H          0.74620000       0.59960000       0.51760000
   183  H          0.85390000       0.24240000       0.97890000
   184  H          0.85390000       0.75760000       0.47890000
   185  H          0.26530000       0.14560000       0.90670000
   186  H          0.26530000       0.85440000       0.40670000
   187  H          0.20260000       0.05050000       0.88860000
   188  H          0.20260000       0.94950000       0.38860000
   189  H          0.56440000       0.06930000       0.97490000
   190  H          0.56440000       0.93070000       0.47490000
   191  H          0.61950000       0.16390000      -0.00520000
   192  H          0.61950000       0.83610000       0.49480000
