data_TNBENZ10
_symmetry_space_group_name_H-M    'P1'
_symmetry_Int_Tables_number       1
loop_
_symmetry_equiv_pos_site_id
_symmetry_equiv_pos_as_xyz
1 x,y,z
_cell_length_a                   9.781
_cell_length_b                   26.941
_cell_length_c                   12.821
_cell_angle_alpha                90.0
_cell_angle_beta                 90.0
_cell_angle_gamma                90.0
loop_
_atom_site_label
_atom_site_type_symbol
_atom_site_fract_x
_atom_site_fract_y
_atom_site_fract_z
     1  C          0.07300000       0.10530000       0.17110000
     2  C          0.42700000       0.89470000       0.67110000
     3  C          0.57300000       0.39470000       0.82890000
     4  C          0.92700000       0.60530000       0.32890000
     5  C          0.92700000       0.89470000       0.82890000
     6  C          0.57300000       0.10530000       0.32890000
     7  C          0.42700000       0.60530000       0.17110000
     8  C          0.07300000       0.39470000       0.67110000
     9  C          0.17700000       0.10030000       0.09860000
    10  C          0.32300000       0.89970000       0.59860000
    11  C          0.67700000       0.39970000       0.90140000
    12  C          0.82300000       0.60030000       0.40140000
    13  C          0.82300000       0.89970000       0.90140000
    14  C          0.67700000       0.10030000       0.40140000
    15  C          0.32300000       0.60030000       0.09860000
    16  C          0.17700000       0.39970000       0.59860000
    17  C          0.20290000       0.05290000       0.06430000
    18  C          0.29710000       0.94710000       0.56430000
    19  C          0.70290000       0.44710000       0.93570000
    20  C          0.79710000       0.55290000       0.43570000
    21  C          0.79710000       0.94710000       0.93570000
    22  C          0.70290000       0.05290000       0.43570000
    23  C          0.29710000       0.55290000       0.06430000
    24  C          0.20290000       0.44710000       0.56430000
    25  C          0.13230000       0.01160000       0.09960000
    26  C          0.36770000       0.98840000       0.59960000
    27  C          0.63230000       0.48840000       0.90040000
    28  C          0.86770000       0.51160000       0.40040000
    29  C          0.86770000       0.98840000       0.90040000
    30  C          0.63230000       0.01160000       0.40040000
    31  C          0.36770000       0.51160000       0.09960000
    32  C          0.13230000       0.48840000       0.59960000
    33  C          0.03610000       0.01980000       0.17650000
    34  C          0.46390000       0.98020000       0.67650000
    35  C          0.53610000       0.48020000       0.82350000
    36  C          0.96390000       0.51980000       0.32350000
    37  C          0.96390000       0.98020000       0.82350000
    38  C          0.53610000       0.01980000       0.32350000
    39  C          0.46390000       0.51980000       0.17650000
    40  C          0.03610000       0.48020000       0.67650000
    41  C          0.00040000       0.06630000       0.21250000
    42  C          0.49960000       0.93370000       0.71250000
    43  C          0.50040000       0.43370000       0.78750000
    44  C         -0.00040000       0.56630000       0.28750000
    45  C         -0.00040000       0.93370000       0.78750000
    46  C          0.50040000       0.06630000       0.28750000
    47  C          0.49960000       0.56630000       0.21250000
    48  C          0.00040000       0.43370000       0.71250000
    49  H          0.22880000       0.13330000       0.06750000
    50  H          0.27120000       0.86670000       0.56750000
    51  H          0.72880000       0.36670000       0.93250000
    52  H          0.77120000       0.63330000       0.43250000
    53  H          0.77120000       0.86670000       0.93250000
    54  H          0.72880000       0.13330000       0.43250000
    55  H          0.27120000       0.63330000       0.06750000
    56  H          0.22880000       0.36670000       0.56750000
    57  H          0.15720000       0.97520000       0.07370000
    58  H          0.34280000       0.02480000       0.57370000
    59  H          0.65720000       0.52480000       0.92630000
    60  H          0.84280000       0.47520000       0.42630000
    61  H          0.84280000       0.02480000       0.92630000
    62  H          0.65720000       0.97520000       0.42630000
    63  H          0.34280000       0.47520000       0.07370000
    64  H          0.15720000       0.52480000       0.57370000
    65  H          0.92790000       0.07120000       0.27220000
    66  H          0.57210000       0.92880000       0.77220000
    67  H          0.42790000       0.42880000       0.72780000
    68  H          0.07210000       0.57120000       0.22780000
    69  H          0.07210000       0.92880000       0.72780000
    70  H          0.42790000       0.07120000       0.22780000
    71  H          0.57210000       0.57120000       0.27220000
    72  H          0.92790000       0.42880000       0.77220000
    73  N          0.03570000       0.15620000       0.20730000
    74  N          0.46430000       0.84380000       0.70730000
    75  N          0.53570000       0.34380000       0.79270000
    76  N          0.96430000       0.65620000       0.29270000
    77  N          0.96430000       0.84380000       0.79270000
    78  N          0.53570000       0.15620000       0.29270000
    79  N          0.46430000       0.65620000       0.20730000
    80  N          0.03570000       0.34380000       0.70730000
    81  N          0.31250000       0.04520000       0.98690000
    82  N          0.18750000       0.95480000       0.48690000
    83  N          0.81250000       0.45480000       0.01310000
    84  N          0.68750000       0.54520000       0.51310000
    85  N          0.68750000       0.95480000       0.01310000
    86  N          0.81250000       0.04520000       0.51310000
    87  N          0.18750000       0.54520000       0.98690000
    88  N          0.31250000       0.45480000       0.48690000
    89  N          0.96630000       0.97660000       0.22210000
    90  N          0.53370000       0.02340000       0.72210000
    91  N          0.46630000       0.52340000       0.77790000
    92  N          0.03370000       0.47660000       0.27790000
    93  N          0.03370000       0.02340000       0.77790000
    94  N          0.46630000       0.97660000       0.27790000
    95  N          0.53370000       0.47660000       0.22210000
    96  N          0.96630000       0.52340000       0.72210000
    97  O          0.93990000       0.16050000       0.27010000
    98  O          0.56010000       0.83950000       0.77010000
    99  O          0.43990000       0.33950000       0.72990000
   100  O          0.06010000       0.66050000       0.22990000
   101  O          0.06010000       0.83950000       0.72990000
   102  O          0.43990000       0.16050000       0.22990000
   103  O          0.56010000       0.66050000       0.27010000
   104  O          0.93990000       0.33950000       0.77010000
   105  O          0.10680000       0.18910000       0.17260000
   106  O          0.39320000       0.81090000       0.67260000
   107  O          0.60680000       0.31090000       0.82740000
   108  O          0.89320000       0.68910000       0.32740000
   109  O          0.89320000       0.81090000       0.82740000
   110  O          0.60680000       0.18910000       0.32740000
   111  O          0.39320000       0.68910000       0.17260000
   112  O          0.10680000       0.31090000       0.67260000
   113  O          0.40570000       0.07510000       0.98570000
   114  O          0.09430000       0.92490000       0.48570000
   115  O          0.90570000       0.42490000       0.01430000
   116  O          0.59430000       0.57510000       0.51430000
   117  O          0.59430000       0.92490000       0.01430000
   118  O          0.90570000       0.07510000       0.51430000
   119  O          0.09430000       0.57510000       0.98570000
   120  O          0.40570000       0.42490000       0.48570000
   121  O          0.30330000       0.01080000       0.93050000
   122  O          0.19670000       0.98920000       0.43050000
   123  O          0.80330000       0.48920000       0.06950000
   124  O          0.69670000       0.51080000       0.56950000
   125  O          0.69670000       0.98920000       0.06950000
   126  O          0.80330000       0.01080000       0.56950000
   127  O          0.19670000       0.51080000       0.93050000
   128  O          0.30330000       0.48920000       0.43050000
   129  O          0.00340000       0.93640000       0.19260000
   130  O          0.49660000       0.06360000       0.69260000
   131  O          0.50340000       0.56360000       0.80740000
   132  O         -0.00340000       0.43640000       0.30740000
   133  O         -0.00340000       0.06360000       0.80740000
   134  O          0.50340000       0.93640000       0.30740000
   135  O          0.49660000       0.43640000       0.19260000
   136  O          0.00340000       0.56360000       0.69260000
   137  O          0.88320000       0.98390000       0.28860000
   138  O          0.61680000       0.01610000       0.78860000
   139  O          0.38320000       0.51610000       0.71140000
   140  O          0.11680000       0.48390000       0.21140000
   141  O          0.11680000       0.01610000       0.71140000
   142  O          0.38320000       0.98390000       0.21140000
   143  O          0.61680000       0.48390000       0.28860000
   144  O          0.88320000       0.51610000       0.78860000
   145  C         -0.01030000       0.29620000       0.19120000
   146  C          0.51030000       0.70380000       0.69120000
   147  C          0.48970000       0.20380000       0.80880000
   148  C          0.01030000       0.79620000       0.30880000
   149  C          0.01030000       0.70380000       0.80880000
   150  C          0.48970000       0.29620000       0.30880000
   151  C          0.51030000       0.79620000       0.19120000
   152  C         -0.01030000       0.20380000       0.69120000
   153  C          0.96880000       0.29240000       0.08550000
   154  C          0.53120000       0.70760000       0.58550000
   155  C          0.46880000       0.20760000       0.91450000
   156  C          0.03120000       0.79240000       0.41450000
   157  C          0.03120000       0.70760000       0.91450000
   158  C          0.46880000       0.29240000       0.41450000
   159  C          0.53120000       0.79240000       0.08550000
   160  C          0.96880000       0.20760000       0.58550000
   161  C          0.04730000       0.31790000       0.01560000
   162  C          0.45270000       0.68210000       0.51560000
   163  C          0.54730000       0.18210000       0.98440000
   164  C          0.95270000       0.81790000       0.48440000
   165  C          0.95270000       0.68210000       0.98440000
   166  C          0.54730000       0.31790000       0.48440000
   167  C          0.45270000       0.81790000       0.01560000
   168  C          0.04730000       0.18210000       0.51560000
   169  C          0.14860000       0.34820000       0.05140000
   170  C          0.35140000       0.65180000       0.55140000
   171  C          0.64860000       0.15180000       0.94860000
   172  C          0.85140000       0.84820000       0.44860000
   173  C          0.85140000       0.65180000       0.94860000
   174  C          0.64860000       0.34820000       0.44860000
   175  C          0.35140000       0.84820000       0.05140000
   176  C          0.14860000       0.15180000       0.55140000
   177  C          0.17680000       0.35450000       0.15690000
   178  C          0.32320000       0.64550000       0.65690000
   179  C          0.67680000       0.14550000       0.84310000
   180  C          0.82320000       0.85450000       0.34310000
   181  C          0.82320000       0.64550000       0.84310000
   182  C          0.67680000       0.35450000       0.34310000
   183  C          0.32320000       0.85450000       0.15690000
   184  C          0.17680000       0.14550000       0.65690000
   185  C          0.09270000       0.32780000       0.22410000
   186  C          0.40730000       0.67220000       0.72410000
   187  C          0.59270000       0.17220000       0.77590000
   188  C          0.90730000       0.82780000       0.27590000
   189  C          0.90730000       0.67220000       0.77590000
   190  C          0.59270000       0.32780000       0.27590000
   191  C          0.40730000       0.82780000       0.22410000
   192  C          0.09270000       0.17220000       0.72410000
   193  H          0.25350000       0.37830000       0.18300000
   194  H          0.24650000       0.62170000       0.68300000
   195  H          0.75350000       0.12170000       0.81700000
   196  H          0.74650000       0.87830000       0.31700000
   197  H          0.74650000       0.62170000       0.81700000
   198  H          0.75350000       0.37830000       0.31700000
   199  H          0.24650000       0.87830000       0.18300000
   200  H          0.25350000       0.12170000       0.68300000
   201  H          0.92770000       0.27430000       0.25060000
   202  H          0.57230000       0.72570000       0.75060000
   203  H          0.42770000       0.22570000       0.74940000
   204  H          0.07230000       0.77430000       0.24940000
   205  H          0.07230000       0.72570000       0.74940000
   206  H          0.42770000       0.27430000       0.24940000
   207  H          0.57230000       0.77430000       0.25060000
   208  H          0.92770000       0.22570000       0.75060000
   209  H          0.02680000       0.31420000       0.92640000
   210  H          0.47320000       0.68580000       0.42640000
   211  H          0.52680000       0.18580000       0.07360000
   212  H          0.97320000       0.81420000       0.57360000
   213  H          0.97320000       0.68580000       0.07360000
   214  H          0.52680000       0.31420000       0.57360000
   215  H          0.47320000       0.81420000       0.92640000
   216  H          0.02680000       0.18580000       0.42640000
   217  N          0.23370000       0.37620000       0.97620000
   218  N          0.26630000       0.62380000       0.47620000
   219  N          0.73370000       0.12380000       0.02380000
   220  N          0.76630000       0.87620000       0.52380000
   221  N          0.76630000       0.62380000       0.02380000
   222  N          0.73370000       0.37620000       0.52380000
   223  N          0.26630000       0.87620000       0.97620000
   224  N          0.23370000       0.12380000       0.47620000
   225  N          0.11890000       0.33470000       0.33850000
   226  N          0.38110000       0.66530000       0.83850000
   227  N          0.61890000       0.16530000       0.66150000
   228  N          0.88110000       0.83470000       0.16150000
   229  N          0.88110000       0.66530000       0.66150000
   230  N          0.61890000       0.33470000       0.16150000
   231  N          0.38110000       0.83470000       0.33850000
   232  N          0.11890000       0.16530000       0.83850000
   233  N          0.86190000       0.25960000       0.05020000
   234  N          0.63810000       0.74040000       0.55020000
   235  N          0.36190000       0.24040000       0.94980000
   236  N          0.13810000       0.75960000       0.44980000
   237  N          0.13810000       0.74040000       0.94980000
   238  N          0.36190000       0.25960000       0.44980000
   239  N          0.63810000       0.75960000       0.05020000
   240  N          0.86190000       0.24040000       0.55020000
   241  O          0.03540000       0.31750000       0.39540000
   242  O          0.46460000       0.68250000       0.89540000
   243  O          0.53540000       0.18250000       0.60460000
   244  O          0.96460000       0.81750000       0.10460000
   245  O          0.96460000       0.68250000       0.60460000
   246  O          0.53540000       0.31750000       0.10460000
   247  O          0.46460000       0.81750000       0.39540000
   248  O          0.03540000       0.18250000       0.89540000
   249  O          0.79620000       0.23630000       0.11290000
   250  O          0.70380000       0.76370000       0.61290000
   251  O          0.29620000       0.26370000       0.88710000
   252  O          0.20380000       0.73630000       0.38710000
   253  O          0.20380000       0.76370000       0.88710000
   254  O          0.29620000       0.23630000       0.38710000
   255  O          0.70380000       0.73630000       0.11290000
   256  O          0.79620000       0.26370000       0.61290000
   257  O          0.83520000       0.25910000       0.95970000
   258  O          0.66480000       0.74090000       0.45970000
   259  O          0.33520000       0.24090000       0.04030000
   260  O          0.16480000       0.75910000       0.54030000
   261  O          0.16480000       0.74090000       0.04030000
   262  O          0.33520000       0.25910000       0.54030000
   263  O          0.66480000       0.75910000       0.95970000
   264  O          0.83520000       0.24090000       0.45970000
   265  O          0.20080000       0.37580000       0.88610000
   266  O          0.29920000       0.62420000       0.38610000
   267  O          0.70080000       0.12420000       0.11390000
   268  O          0.79920000       0.87580000       0.61390000
   269  O          0.79920000       0.62420000       0.11390000
   270  O          0.70080000       0.37580000       0.61390000
   271  O          0.29920000       0.87580000       0.88610000
   272  O          0.20080000       0.12420000       0.38610000
   273  O          0.33560000       0.39760000       0.00990000
   274  O          0.16440000       0.60240000       0.50990000
   275  O          0.83560000       0.10240000      -0.00990000
   276  O          0.66440000       0.89760000       0.49010000
   277  O          0.66440000       0.60240000      -0.00990000
   278  O          0.83560000       0.39760000       0.49010000
   279  O          0.16440000       0.89760000       0.00990000
   280  O          0.33560000       0.10240000       0.50990000
   281  O          0.22310000       0.35730000       0.36340000
   282  O          0.27690000       0.64270000       0.86340000
   283  O          0.72310000       0.14270000       0.63660000
   284  O          0.77690000       0.85730000       0.13660000
   285  O          0.77690000       0.64270000       0.63660000
   286  O          0.72310000       0.35730000       0.13660000
   287  O          0.27690000       0.85730000       0.36340000
   288  O          0.22310000       0.14270000       0.86340000
