data_TNBENZ13
_symmetry_space_group_name_H-M    'P1'
_symmetry_Int_Tables_number       1
loop_
_symmetry_equiv_pos_site_id
_symmetry_equiv_pos_as_xyz
1 x,y,z
_cell_length_a                   12.8965
_cell_length_b                   5.7232
_cell_length_c                   11.2875
_cell_angle_alpha                90.0
_cell_angle_beta                 98.1908
_cell_angle_gamma                90.0
loop_
_atom_site_label
_atom_site_type_symbol
_atom_site_fract_x
_atom_site_fract_y
_atom_site_fract_z
     1  O          0.02322130      -0.00774000       0.30972000
     2  O          0.97677870       0.49226000       0.19028000
     3  O          0.97677870       0.00774000       0.69028000
     4  O          0.02322130       0.50774000       0.80972000
     5  O          0.01779130       0.71936000       0.43832170
     6  O          0.98220870       0.21936000       0.06167830
     7  O          0.98220870       0.28064000       0.56167830
     8  O          0.01779130       0.78064000       0.93832170
     9  O          0.68386130       0.49127000       0.55141140
    10  O          0.31613870      -0.00873000       0.94858860
    11  O          0.31613870       0.50873000       0.44858860
    12  O          0.68386130       0.00873000       0.05141140
    13  O          0.55458130       0.73507000       0.52147150
    14  O          0.44541870       0.23507000       0.97852850
    15  O          0.44541870       0.26493000       0.47852850
    16  O          0.55458130       0.76493000       0.02147150
    17  O          0.72272120       0.47913000       0.19820140
    18  O          0.27727880      -0.02087000       0.30179860
    19  O          0.27727880       0.52087000       0.80179860
    20  O          0.72272120       0.02087000       0.69820140
    21  O          0.57490120       0.39123000       0.25434150
    22  O          0.42509880       0.89123000       0.24565850
    23  O          0.42509880       0.60877000       0.74565850
    24  O          0.57490120       0.10877000       0.75434150
    25  N          0.97646150       0.87106000       0.37271180
    26  N          0.02353850       0.37106000       0.12728820
    27  N          0.02353850       0.12894000       0.62728820
    28  N          0.97646150       0.62894000       0.87271180
    29  N          0.64222150       0.67287000       0.50986140
    30  N          0.35777850       0.17287000      -0.00986140
    31  N          0.35777850       0.32713000       0.49013860
    32  N          0.64222150       0.82713000       0.00986140
    33  N          0.66704130       0.35463000       0.24973140
    34  N          0.33295870       0.85463000       0.25026860
    35  N          0.33295870       0.64537000       0.75026860
    36  N          0.66704130       0.14537000       0.74973140
    37  C          0.86421150       0.91546000       0.37383170
    38  C          0.13578850       0.41546000       0.12616830
    39  C          0.13578850       0.08454000       0.62616830
    40  C          0.86421150       0.58454000       0.87383170
    41  C          0.80889160       0.77206000       0.44005170
    42  C          0.19110840       0.27206000       0.05994830
    43  C          0.19110840       0.22794000       0.55994830
    44  C          0.80889160       0.72794000       0.94005170
    45  H          0.84130000       0.64320000       0.48370000
    46  H          0.15870000       0.14320000       0.01630000
    47  H          0.15870000       0.35680000       0.51630000
    48  H          0.84130000       0.85680000       0.98370000
    49  C          0.70424150       0.82327000       0.44055150
    50  C          0.29575850       0.32327000       0.05944850
    51  C          0.29575850       0.17673000       0.55944850
    52  C          0.70424150       0.67673000       0.94055150
    53  C          0.65534140       0.01203000       0.37947150
    54  C          0.34465860       0.51203000       0.12052850
    55  C          0.34465860      -0.01203000       0.62052850
    56  C          0.65534140       0.48797000       0.87947150
    57  H          0.58360000       0.04620000       0.38210000
    58  H          0.41640000       0.54620000       0.11790000
    59  H          0.41640000       0.95380000       0.61790000
    60  H          0.58360000       0.45380000       0.88210000
    61  C          0.71529140       0.14833000       0.31467150
    62  C          0.28470860       0.64833000       0.18532850
    63  C          0.28470860       0.85167000       0.68532850
    64  C          0.71529140       0.35167000       0.81467150
    65  C          0.81965150       0.10594000       0.30915170
    66  C          0.18034850       0.60594000       0.19084830
    67  C          0.18034850       0.89406000       0.69084830
    68  C          0.81965150       0.39406000       0.80915170
    69  H          0.85920000       0.20190000       0.26350000
    70  H          0.14080000       0.70190000       0.23650000
    71  H          0.14080000       0.79810000       0.73650000
    72  H          0.85920000       0.29810000       0.76350000
