data_TNBENZ12
_symmetry_space_group_name_H-M    'P1'
_symmetry_Int_Tables_number       1
loop_
_symmetry_equiv_pos_site_id
_symmetry_equiv_pos_as_xyz
1 x,y,z
_cell_length_a                   9.2972
_cell_length_b                   18.7304
_cell_length_c                   9.6332
_cell_angle_alpha                90.0
_cell_angle_beta                 90.0
_cell_angle_gamma                90.0
loop_
_atom_site_label
_atom_site_type_symbol
_atom_site_fract_x
_atom_site_fract_y
_atom_site_fract_z
     1  O          0.64672000       0.35608100       0.71822000
     2  O          0.35328000       0.64391900       0.21822000
     3  O          0.14672000       0.64391900       0.71822000
     4  O          0.85328000       0.35608100       0.21822000
     5  N          0.69592000       0.38757110       0.81922000
     6  N          0.30408000       0.61242890       0.31922000
     7  N          0.19592000       0.61242890       0.81922000
     8  N          0.80408000       0.38757110       0.31922000
     9  O          0.04243000       0.49087130       0.16022000
    10  O          0.95757000       0.50912870       0.66022000
    11  O          0.54243000       0.50912870       0.16022000
    12  O          0.45757000       0.49087130       0.66022000
    13  C          0.05733000       0.41392130       0.97313000
    14  C          0.94267000       0.58607870       0.47313000
    15  C          0.55733000       0.58607870       0.97313000
    16  C          0.44267000       0.41392130       0.47313000
    17  N          0.12043000       0.45281120       0.09183000
    18  N          0.87957000       0.54718880       0.59183000
    19  N          0.62043000       0.54718880       0.09183000
    20  N          0.37957000       0.45281120       0.59183000
    21  C          0.91083000       0.42067120       0.95203000
    22  C          0.08917000       0.57932880       0.45203000
    23  C          0.41083000       0.57932880       0.95203000
    24  C          0.58917000       0.42067120       0.45203000
    25  H          0.85400000       0.44930000       0.00870000
    26  H          0.14600000       0.55070000       0.50870000
    27  H          0.35400000       0.55070000       0.00870000
    28  H          0.64600000       0.44930000       0.50870000
    29  O          0.62522000       0.42187120       0.90273000
    30  O          0.37478000       0.57812880       0.40273000
    31  O          0.12522000       0.57812880       0.90273000
    32  O          0.87478000       0.42187120       0.40273000
    33  C          0.14443000       0.37232140       0.89183000
    34  C          0.85557000       0.62767860       0.39183000
    35  C          0.64443000       0.62767860       0.89183000
    36  C          0.35557000       0.37232140       0.39183000
    37  H          0.24240000       0.36830000       0.90940000
    38  H          0.75760000       0.63170000       0.40940000
    39  H          0.74240000       0.63170000       0.90940000
    40  H          0.25760000       0.36830000       0.40940000
    41  O          0.24943000       0.44523110       0.11263000
    42  O          0.75057000       0.55476890       0.61263000
    43  O          0.74943000       0.55476890       0.11263000
    44  O          0.25057000       0.44523110       0.61263000
    45  C          0.85313000       0.38260120       0.84223000
    46  C          0.14687000       0.61739880       0.34223000
    47  C          0.35313000       0.61739880       0.84223000
    48  C          0.64687000       0.38260120       0.34223000
    49  C          0.93433000       0.34031120       0.75503000
    50  C          0.06567000       0.65968880       0.25503000
    51  C          0.43433000       0.65968880       0.75503000
    52  C          0.56567000       0.34031120       0.25503000
    53  H          0.89310000       0.31550000       0.68150000
    54  H          0.10690000       0.68450000       0.18150000
    55  H          0.39310000       0.68450000       0.68150000
    56  H          0.60690000       0.31550000       0.18150000
    57  O          0.29893000       0.28618150       0.72373000
    58  O          0.70107000       0.71381850       0.22373000
    59  O          0.79893000       0.71381850       0.72373000
    60  O          0.20107000       0.28618150       0.22373000
    61  N          0.17183000       0.29168140       0.69323000
    62  N          0.82817000       0.70831860       0.19323000
    63  N          0.67183000       0.70831860       0.69323000
    64  N          0.32817000       0.29168140       0.19323000
    65  C          0.08033000       0.33658130       0.78263000
    66  C          0.91967000       0.66341870       0.28263000
    67  C          0.58033000       0.66341870       0.78263000
    68  C          0.41967000       0.33658130       0.28263000
    69  O          0.11743000       0.26338150       0.59253000
    70  O          0.88257000       0.73661850       0.09253000
    71  O          0.61743000       0.73661850       0.59253000
    72  O          0.38257000       0.26338150       0.09253000
    73  N          0.65063000       0.01348120       0.40343000
    74  N          0.34937000       0.98651880       0.90343000
    75  N          0.15063000       0.98651880       0.40343000
    76  N          0.84937000       0.01348120       0.90343000
    77  O          0.34023000       0.82402890       0.61312000
    78  O          0.65977000       0.17597110       0.11312000
    79  O          0.84023000       0.17597110       0.61312000
    80  O          0.15977000       0.82402890       0.11312000
    81  O          0.31202000       0.74373890       0.45463000
    82  O          0.68798000       0.25626110       0.95463000
    83  O          0.81202000       0.25626110       0.45463000
    84  O          0.18798000       0.74373890       0.95463000
    85  N          0.35893000       0.80073880       0.49683000
    86  N          0.64107000       0.19926120      -0.00317000
    87  N          0.85893000       0.19926120       0.49683000
    88  N          0.14107000       0.80073880      -0.00317000
    89  O          0.65702000       0.02424110       0.52872000
    90  O          0.34298000       0.97575890       0.02872000
    91  O          0.15702000       0.97575890       0.52872000
    92  O          0.84298000       0.02424110       0.02872000
    93  O          0.49953000       0.78766880      -0.00892000
    94  O          0.50047000       0.21233120       0.49108000
    95  O         -0.00047000       0.21233120      -0.00892000
    96  O          0.00047000       0.78766880       0.49108000
    97  N          0.55583000       0.84286870       0.02903000
    98  N          0.44417000       0.15713130       0.52903000
    99  N          0.05583000       0.15713130       0.02903000
   100  N          0.94417000       0.84286870       0.52903000
   101  C          0.53983000       0.86400870       0.17673000
   102  C          0.46017000       0.13599130       0.67673000
   103  C          0.03983000       0.13599130       0.17673000
   104  C          0.96017000       0.86400870       0.67673000
   105  C          0.60263000       0.92716870       0.21803000
   106  C          0.39737000       0.07283130       0.71803000
   107  C          0.10263000       0.07283130       0.21803000
   108  C          0.89737000       0.92716870       0.71803000
   109  H          0.65470000       0.95550000       0.15660000
   110  H          0.34530000       0.04450000       0.65660000
   111  H          0.15470000       0.04450000       0.15660000
   112  H          0.84530000       0.95550000       0.65660000
   113  C          0.50703000       0.90594870       0.44933000
   114  C          0.49297000       0.09405130       0.94933000
   115  C          0.00703000       0.09405130       0.44933000
   116  C         -0.00703000       0.90594870       0.94933000
   117  H          0.49640000       0.92000000       0.54140000
   118  H          0.50360000       0.08000000       0.04140000
   119  H         -0.00360000       0.08000000       0.54140000
   120  H          0.00360000       0.92000000       0.04140000
   121  C          0.46013000       0.82061880       0.26343000
   122  C          0.53987000       0.17938120       0.76343000
   123  C          0.96013000       0.17938120       0.26343000
   124  C          0.03987000       0.82061880       0.76343000
   125  H          0.41840000       0.77840000       0.23230000
   126  H          0.58160000       0.22160000       0.73230000
   127  H          0.91840000       0.22160000       0.23230000
   128  H          0.08160000       0.77840000       0.73230000
   129  O          0.62533000       0.88317860       0.95298000
   130  O          0.37467000       0.11682140       0.45298000
   131  O          0.12533000       0.11682140       0.95298000
   132  O          0.87467000       0.88317860       0.45298000
   133  C          0.58413000       0.94615870       0.35543000
   134  C          0.41587000       0.05384130       0.85543000
   135  C          0.08413000       0.05384130       0.35543000
   136  C          0.91587000       0.94615870       0.85543000
   137  C          0.44603000       0.84351880       0.39933000
   138  C          0.55397000       0.15648120       0.89933000
   139  C          0.94603000       0.15648120       0.39933000
   140  C          0.05397000       0.84351880       0.89933000
   141  O          0.69473000       0.05482120       0.31553000
   142  O          0.30527000       0.94517880       0.81553000
   143  O          0.19473000       0.94517880       0.31553000
   144  O          0.80527000       0.05482120       0.81553000
