data_TOKSAO
_symmetry_space_group_name_H-M    'P1'
_symmetry_Int_Tables_number       1
loop_
_symmetry_equiv_pos_site_id
_symmetry_equiv_pos_as_xyz
1 x,y,z
_cell_length_a                   15.8373
_cell_length_b                   5.4911
_cell_length_c                   11.7232
_cell_angle_alpha                90.0
_cell_angle_beta                 99.761
_cell_angle_gamma                90.0
loop_
_atom_site_label
_atom_site_type_symbol
_atom_site_fract_x
_atom_site_fract_y
_atom_site_fract_z
     1  C          0.28774800       0.50922000       0.46698100
     2  C          0.71225200       0.00922000       0.03301900
     3  C          0.71225200       0.49078000       0.53301900
     4  C          0.28774800      -0.00922000       0.96698100
     5  C          0.36771700       0.46792000       0.54201100
     6  C          0.63228300       0.96792000       0.95798900
     7  C          0.63228300       0.53208000       0.45798900
     8  C          0.36771700       0.03208000       0.04201100
     9  C          0.39102800       0.62752000       0.63399110
    10  C          0.60897200       0.12752000       0.86600890
    11  C          0.60897200       0.37248000       0.36600890
    12  C          0.39102800       0.87248000       0.13399110
    13  H          0.44330000       0.60300000       0.68600000
    14  H          0.55670000       0.10300000       0.81400000
    15  H          0.55670000       0.39700000       0.31400000
    16  H          0.44330000       0.89700000       0.18600000
    17  C          0.33884800       0.82162000       0.65049110
    18  C          0.66115200       0.32162000       0.84950890
    19  C          0.66115200       0.17838000       0.34950890
    20  C          0.33884800       0.67838000       0.15049110
    21  H          0.35320000       0.92930000       0.71420000
    22  H          0.64680000       0.42930000       0.78580000
    23  H          0.64680000       0.07070000       0.28580000
    24  H          0.35320000       0.57070000       0.21420000
    25  C          0.26441800       0.85272000       0.56998110
    26  C          0.73558200       0.35272000       0.93001890
    27  C          0.73558200       0.14728000       0.43001890
    28  C          0.26441800       0.64728000       0.06998110
    29  H          0.22940000      -0.01070000       0.57920000
    30  H          0.77060000       0.48930000       0.92080000
    31  H          0.77060000       0.01070000       0.42080000
    32  H          0.22940000       0.51070000       0.07920000
    33  C          0.18561700       0.34622000       0.29406100
    34  C          0.81438300       0.84622000       0.20593900
    35  C          0.81438300       0.65378000       0.70593900
    36  C          0.18561700       0.15378000       0.79406100
    37  C          0.17898800       0.14632000       0.21915110
    38  C          0.82101200       0.64632000       0.28084890
    39  C          0.82101200       0.85368000       0.78084890
    40  C          0.17898800       0.35368000       0.71915110
    41  H          0.22150000       0.02240000       0.23110000
    42  H          0.77850000       0.52240000       0.26890000
    43  H          0.77850000      -0.02240000       0.76890000
    44  H          0.22150000       0.47760000       0.73110000
    45  C          0.11133800       0.12642000       0.12778110
    46  C          0.88866200       0.62642000       0.37221890
    47  C          0.88866200       0.87358000       0.87221890
    48  C          0.11133800       0.37358000       0.62778110
    49  H          0.10790000      -0.00940000       0.07700000
    50  H          0.89210000       0.49060000       0.42300000
    51  H          0.89210000       0.00940000       0.92300000
    52  H          0.10790000       0.50940000       0.57700000
    53  C          0.04859800       0.30512000       0.11056110
    54  C          0.95140200       0.80512000       0.38943890
    55  C          0.95140200       0.69488000       0.88943890
    56  C          0.04859800       0.19488000       0.61056110
    57  H          0.00230000       0.29330000       0.04760000
    58  H         -0.00230000       0.79330000       0.45240000
    59  H         -0.00230000       0.70670000       0.95240000
    60  H          0.00230000       0.20670000       0.54760000
    61  C          0.05400800       0.50062000       0.18575110
    62  C          0.94599200       0.00062000       0.31424890
    63  C          0.94599200       0.49938000       0.81424890
    64  C          0.05400800      -0.00062000       0.68575110
    65  H          0.01040000       0.62140000       0.17450000
    66  H          0.98960000       0.12140000       0.32550000
    67  H          0.98960000       0.37860000       0.82550000
    68  H          0.01040000       0.87860000       0.67450000
    69  C          0.12191800       0.52442000       0.27760110
    70  C          0.87808200       0.02442000       0.22239890
    71  C          0.87808200       0.47558000       0.72239890
    72  C          0.12191800      -0.02442000       0.77760110
    73  H          0.12480000       0.66020000       0.32840000
    74  H          0.87520000       0.16020000       0.17160000
    75  H          0.87520000       0.33980000       0.67160000
    76  H          0.12480000       0.83980000       0.82840000
    77  C          0.42557700       0.26922000       0.52236100
    78  C          0.57442300       0.76922000       0.97763900
    79  C          0.57442300       0.73078000       0.47763900
    80  C          0.42557700       0.23078000       0.02236100
    81  N          0.23870700       0.70462000       0.48085900
    82  N          0.76129300       0.20462000       0.01914100
    83  N          0.76129300       0.29538000       0.51914100
    84  N          0.23870700       0.79538000       0.98085900
    85  N          0.25955600       0.34977190       0.38017900
    86  N          0.74044400       0.84977190       0.11982100
    87  N          0.74044400       0.65022810       0.61982100
    88  N          0.25955600       0.15022810       0.88017900
    89  H          0.29400000       0.22500000       0.37710000
    90  H          0.70600000       0.72500000       0.12290000
    91  H          0.70600000       0.77500000       0.62290000
    92  H          0.29400000       0.27500000       0.87710000
    93  O          0.49559500       0.25245170       0.60148700
    94  O          0.50440500       0.75245170       0.89851300
    95  O          0.50440500       0.74754830       0.39851300
    96  O          0.49559500       0.24754830       0.10148700
    97  H          0.52610000       0.13720000       0.58450000
    98  H          0.47390000       0.63720000       0.91550000
    99  H          0.47390000       0.86280000       0.41550000
   100  H          0.52610000       0.36280000       0.08450000
   101  O          0.41188500       0.12816170       0.43884800
   102  O          0.58811500       0.62816170       0.06115200
   103  O          0.58811500       0.87183830       0.56115200
   104  O          0.41188500       0.37183830       0.93884800
