data_TOKSAO03
_symmetry_space_group_name_H-M    'P1'
_symmetry_Int_Tables_number       1
loop_
_symmetry_equiv_pos_site_id
_symmetry_equiv_pos_as_xyz
1 x,y,z
_cell_length_a                   5.28681
_cell_length_b                   9.05443
_cell_length_c                   11.04764
_cell_angle_alpha                80.718812
_cell_angle_beta                 82.761113
_cell_angle_gamma                79.932713
loop_
_atom_site_label
_atom_site_type_symbol
_atom_site_fract_x
_atom_site_fract_y
_atom_site_fract_z
     1  N          0.05865000       0.48173000       0.67032000
     2  C          0.92964000       0.53004000       0.77423000
     3  C          0.74154000       0.45063000       0.84573000
     4  C          0.68944000       0.32294000       0.80493000
     5  H          0.56170000       0.26860000       0.85040000
     6  C          0.82064000       0.27414000       0.69913000
     7  H          0.78710000       0.18630000       0.67090000
     8  C          0.00406000       0.35824000       0.63523000
     9  H          0.09570000       0.32550000       0.56220000
    10  N         -0.00955000       0.65533000       0.81042000
    11  H          0.94260000       0.66800000       0.88770000
    12  C          0.12216000       0.76753000       0.73763000
    13  C          0.29946000       0.82734000       0.79013000
    14  H          0.33620000       0.78970000       0.87240000
    15  C          0.42267000       0.94154000       0.72293000
    16  H          0.54450000       0.98180000       0.75910000
    17  C          0.36897000      -0.00226000       0.60263000
    18  H          0.45450000       0.07580000       0.55660000
    19  C          0.19237000       0.94024000       0.55073000
    20  H          0.15510000       0.97880000       0.46860000
    21  C          0.06736000       0.82564000       0.61773000
    22  H          0.94380000       0.78670000       0.58140000
    23  C          0.60374000       0.50024000       0.96173000
    24  O          0.42106000       0.41993000       0.00882000
    25  H          0.35520000       0.44720000       0.07650000
    26  O          0.65476000       0.60372000       0.00822000
    27  N          0.14075000       0.51873000       0.20442000
    28  C          0.94306000       0.46383000       0.27533000
    29  C          0.77726000       0.55204000       0.35833000
    30  C          0.82106000       0.69604000       0.36183000
    31  H          0.71120000       0.75720000       0.41550000
    32  C          0.02436000       0.75354000       0.28773000
    33  H          0.05610000       0.85330000       0.28910000
    34  C          0.17836000       0.65894000       0.21173000
    35  H          0.31980000       0.69610000       0.16170000
    36  N          0.90585000       0.32183000       0.26603000
    37  H          0.76440000       0.29100000       0.30490000
    38  C          0.07806000       0.21913000       0.19803000
    39  C          0.00976000       0.18084000       0.09113000
    40  H          0.84980000       0.22710000       0.06100000
    41  C          0.17317000       0.07614000       0.02853000
    42  H          0.12520000       0.05170000       0.95490000
    43  C          0.40447000       0.00624000       0.07063000
    44  H          0.51600000       0.93410000       0.02690000
    45  C          0.47197000       0.04284000       0.17823000
    46  H          0.62980000      -0.00610000       0.20890000
    47  C          0.31296000       0.14944000       0.24123000
    48  H          0.36330000       0.17520000       0.31370000
    49  C          0.56526000       0.48974000       0.44183000
    50  O          0.45784000       0.57852000       0.52252000
    51  H          0.33670000       0.54050000       0.56600000
    52  O          0.50114000       0.36773000       0.43472000
