data_TOKSAO01
_symmetry_space_group_name_H-M    'P1'
_symmetry_Int_Tables_number       1
loop_
_symmetry_equiv_pos_site_id
_symmetry_equiv_pos_as_xyz
1 x,y,z
_cell_length_a                   9.911101
_cell_length_b                   10.19072
_cell_length_c                   11.29412
_cell_angle_alpha                96.75986
_cell_angle_beta                 114.23917
_cell_angle_gamma                96.65506
loop_
_atom_site_label
_atom_site_type_symbol
_atom_site_fract_x
_atom_site_fract_y
_atom_site_fract_z
     1  O          0.00573100       0.12106900       0.63668900
     2  O         -0.00573100       0.87893100       0.36331100
     3  H          0.04670000       0.05980000       0.61690000
     4  H          0.95330000       0.94020000       0.38310000
     5  O          0.85269100       0.06443900       0.42094900
     6  O          0.14730900       0.93556100       0.57905100
     7  N          0.62413130       0.19882110       0.32435100
     8  N          0.37586870       0.80117890       0.67564900
     9  H          0.67450000       0.13610000       0.31420000
    10  H          0.32550000       0.86390000       0.68580000
    11  N          0.59606130       0.35594110       0.47522110
    12  N          0.40393870       0.64405890       0.52477890
    13  C          0.50530150       0.21544130       0.20630130
    14  C          0.49469850       0.78455870       0.79369870
    15  C          0.51803160       0.17164130       0.08998130
    16  C          0.48196840       0.82835870       0.91001870
    17  H          0.60330000       0.13480000       0.09430000
    18  H          0.39670000       0.86520000       0.90570000
    19  C          0.37858150       0.26649130       0.19885130
    20  C          0.62141850       0.73350870       0.80114870
    21  H          0.36710000       0.29430000       0.27690000
    22  H          0.63290000       0.70570000       0.72310000
    23  C          0.80377150       0.23523120       0.55397130
    24  C          0.19622850       0.76476880       0.44602870
    25  C          0.40775160       0.18148140       0.96895870
    26  C          0.59224840       0.81851860       0.03104130
    27  H          0.41740000       0.15090000       0.89050000
    28  H          0.58260000       0.84910000       0.10950000
    29  C          0.26847150       0.27653130       0.07601130
    30  C          0.73152850       0.72346870       0.92398870
    31  H          0.18220000       0.31200000       0.07110000
    32  H          0.81780000       0.68800000       0.92890000
    33  C          0.76947160       0.40025130       0.70532130
    34  C          0.23052840       0.59974870       0.29467870
    35  H          0.79940000       0.44910000       0.79180000
    36  H          0.20060000       0.55090000       0.20820000
    37  C          0.64454150       0.42131130       0.59865130
    38  C          0.35545850       0.57868870       0.40134870
    39  H          0.59010000       0.48660000       0.61470000
    40  H          0.40990000       0.51340000       0.38530000
    41  C          0.84867150       0.30563130       0.68111130
    42  C          0.15132850       0.69436870       0.31888870
    43  H          0.93450000       0.28850000       0.75190000
    44  H          0.06550000       0.71150000       0.24810000
    45  C          0.67309150       0.26375130       0.45049120
    46  C          0.32690850       0.73624870       0.54950880
    47  C          0.28281160       0.23571140       0.96106870
    48  C          0.71718840       0.76428860       0.03893130
    49  H          0.20820000       0.24470000       0.87800000
    50  H          0.79180000       0.75530000       0.12200000
    51  C          0.88782140       0.13406130       0.53011130
    52  C          0.11217860       0.86593870       0.46988870
    53  O          0.34608100       0.05828900       0.42282900
    54  O          0.65391900       0.94171100       0.57717100
    55  O          0.50502100       0.12039900       0.63689900
    56  O          0.49497900       0.87960100       0.36310100
    57  H          0.54750000       0.06080000       0.61650000
    58  H          0.45250000       0.93920000       0.38350000
    59  N          0.11268120       0.18825110       0.32844100
    60  N          0.88731880       0.81174890       0.67155900
    61  H          0.15330000       0.11700000       0.32160000
    62  H          0.84670000       0.88300000       0.67840000
    63  N          0.10409130       0.36468110       0.47434110
    64  N          0.89590870       0.63531890       0.52565890
    65  C         -0.00545150       0.20441130       0.20994130
    66  C          0.00545150       0.79558870       0.79005870
    67  C          0.17372150       0.26505130       0.45136120
    68  C          0.82627850       0.73494870       0.54863880
    69  C          0.94671850       0.32571140       0.18478130
    70  C          0.05328150       0.67428860       0.81521870
    71  H         -0.01310000       0.40310000       0.25270000
    72  H          0.01310000       0.59690000       0.74730000
    73  C          0.38583140       0.13207130       0.53079130
    74  C          0.61416860       0.86792870       0.46920870
    75  C          0.93121850       0.09120140       0.10944130
    76  C          0.06878150       0.90879860       0.89055870
    77  H          0.96160000       0.00760000       0.12620000
    78  H          0.03840000      -0.00760000       0.87380000
    79  C          0.84033840       0.33308140       0.06036130
    80  C          0.15966160       0.66691860       0.93963870
    81  H          0.80860000       0.41620000       0.04360000
    82  H          0.19140000       0.58380000       0.95640000
    83  C          0.82476850       0.09980140       0.98582870
    84  C          0.17523150       0.90019860       0.01417130
    85  H          0.78240000       0.02210000       0.91830000
    86  H          0.21760000       0.97790000       0.08170000
    87  C          0.77934840       0.22152140       0.95981870
    88  C          0.22065160       0.77847860       0.04018130
    89  H          0.70760000       0.22810000       0.87450000
    90  H          0.29240000       0.77190000       0.12550000
    91  C          0.29292160       0.42394130       0.69959130
    92  C          0.70707840       0.57605870       0.30040870
    93  H          0.33090000       0.48060000       0.78360000
    94  H          0.66910000       0.51940000       0.21640000
    95  C          0.30702150       0.23879130       0.55350130
    96  C          0.69297850       0.76120870       0.44649870
    97  C          0.36360150       0.32103130       0.67692130
    98  C          0.63639850       0.67896870       0.32307870
    99  H          0.45200000       0.30630000       0.74660000
   100  H          0.54800000       0.69370000       0.25340000
   101  C          0.16401160       0.44094130       0.59427130
   102  C          0.83598840       0.55905870       0.40572870
   103  H          0.11510000       0.51190000       0.60870000
   104  H          0.88490000       0.48810000       0.39130000
