data_TOLUEN04
_symmetry_space_group_name_H-M    'P1'
_symmetry_Int_Tables_number       1
loop_
_symmetry_equiv_pos_site_id
_symmetry_equiv_pos_as_xyz
1 x,y,z
_cell_length_a                   5.56523
_cell_length_b                   18.60036
_cell_length_c                   7.68615
_cell_angle_alpha                90.0
_cell_angle_beta                 100.0327
_cell_angle_gamma                90.0
loop_
_atom_site_label
_atom_site_type_symbol
_atom_site_fract_x
_atom_site_fract_y
_atom_site_fract_z
     1  C          0.00221000       0.32452000       0.25898000
     2  C         -0.00221000       0.82452000       0.74102000
     3  C          0.22881300       0.32183000       0.36251100
     4  C          0.77118700       0.82183000       0.63748900
     5  H          0.27920000       0.27920000       0.42100000
     6  H          0.72080000       0.77920000       0.57900000
     7  C          0.38431400       0.37983000       0.38331200
     8  C          0.61568600       0.87983000       0.61668800
     9  H          0.53610000       0.37660000       0.45590000
    10  H          0.46390000       0.87660000       0.54410000
    11  C          0.31191400       0.44223000       0.29521000
    12  C          0.68808600       0.94223000       0.70479000
    13  H          0.41640000       0.48160000       0.30680000
    14  H          0.58360000       0.98160000       0.69320000
    15  C          0.08821300       0.44713000       0.19071000
    16  C          0.91178700       0.94713000       0.80929000
    17  H          0.03950000       0.48950000       0.13070000
    18  H          0.96050000       0.98950000       0.86930000
    19  C          0.93548800       0.38862000       0.17521000
    20  C          0.06451200       0.88862000       0.82479000
    21  H          0.78160000       0.39250000       0.10570000
    22  H          0.21840000       0.89250000       0.89430000
    23  C          0.83638800       0.25992000       0.23901200
    24  C          0.16361200       0.75992000       0.76098800
    25  H          0.73610000       0.26100000       0.32870000
    26  H          0.26390000       0.76100000       0.67130000
    27  H          0.93290000       0.21680000       0.25100000
    28  H          0.06710000       0.71680000       0.74900000
    29  H          0.73460000       0.26080000       0.12450000
    30  H          0.26540000       0.76080000       0.87550000
    31  C          0.85181000       0.77273190       0.16687000
    32  C          0.14819000       0.27273190       0.83313000
    33  C          0.79921100       0.70922000       0.07471000
    34  C          0.20078900       0.20922000       0.92529000
    35  H          0.65210000       0.70440000      -0.00300000
    36  H          0.34790000       0.20440000       0.00300000
    37  C          0.96351300       0.65303000       0.09721000
    38  C          0.03648700       0.15303000       0.90279000
    39  H          0.92410000       0.61030000       0.03600000
    40  H          0.07590000       0.11030000       0.96400000
    41  C          0.18401400       0.65913000       0.20841000
    42  C          0.81598600       0.15913000       0.79159000
    43  H          0.29420000       0.62110000       0.22160000
    44  H          0.70580000       0.12110000       0.77840000
    45  C          0.23971200       0.72233000       0.30001100
    46  C          0.76028800       0.22233000       0.69998900
    47  H          0.38810000       0.72740000       0.37610000
    48  H          0.61190000       0.22740000       0.62390000
    49  C          0.07351000       0.77803000       0.27781000
    50  C          0.92649000       0.27803000       0.72219000
    51  H          0.11260000       0.82060000       0.33990000
    52  H          0.88740000       0.32060000       0.66010000
    53  C          0.67481100       0.83472000       0.14109000
    54  C          0.32518900       0.33472000       0.85891000
    55  H          0.56700000       0.83140000       0.22560000
    56  H          0.43300000       0.33140000       0.77440000
    57  H          0.58120000       0.83290000       0.02370000
    58  H          0.41880000       0.33290000       0.97630000
    59  H          0.76320000       0.87920000       0.15730000
    60  H          0.23680000       0.37920000       0.84270000
    61  C          0.59531200       0.54432000       0.75268000
    62  C          0.40468800       0.04432000       0.24732000
    63  C          0.74691200       0.48782000       0.72909000
    64  C          0.25308800       0.98782000       0.27091000
    65  H          0.74830000       0.44010000       0.80990000
    66  H          0.25170000       0.94010000       0.19010000
    67  C          0.89641300       0.49113000       0.60429000
    68  C          0.10358700       0.99113000       0.39571000
    69  H         -0.00690000       0.45190000       0.58680000
    70  H          0.00690000       0.95190000       0.41320000
    71  C          0.90251300       0.55272000       0.50499000
    72  C          0.09748700       0.05272000       0.49501000
    73  H          0.00870000       0.55610000       0.42430000
    74  H         -0.00870000       0.05610000       0.57570000
    75  C          0.75091200       0.60883000       0.52639000
    76  C          0.24908800       0.10883000       0.47361000
    77  H          0.75160000       0.65000000       0.45760000
    78  H          0.24840000       0.15000000       0.54240000
    79  C          0.59721300       0.60483000       0.64878000
    80  C          0.40278700       0.10483000       0.35122000
    81  H          0.49410000       0.64310000       0.66130000
    82  H          0.50590000       0.14310000       0.33870000
    83  C          0.43911400       0.54153000       0.89401000
    84  C          0.56088600       0.04153000       0.10599000
    85  H          0.29490000       0.56990000       0.85830000
    86  H          0.70510000       0.06990000       0.14170000
    87  H          0.52930000       0.56020000       0.00240000
    88  H          0.47070000       0.06020000      -0.00240000
    89  H          0.39350000       0.49260000       0.91140000
    90  H          0.60650000      -0.00740000       0.08860000
