data_TOLUEN11
_symmetry_space_group_name_H-M    'P1'
_symmetry_Int_Tables_number       1
loop_
_symmetry_equiv_pos_site_id
_symmetry_equiv_pos_as_xyz
1 x,y,z
_cell_length_a                   13.854
_cell_length_b                   11.422
_cell_length_c                   7.393
_cell_angle_alpha                90.0
_cell_angle_beta                 90.0
_cell_angle_gamma                90.0
loop_
_atom_site_label
_atom_site_type_symbol
_atom_site_fract_x
_atom_site_fract_y
_atom_site_fract_z
     1  C          0.38200000       0.39320000       0.57830000
     2  C          0.11800000       0.10680000       0.07830000
     3  C          0.88200000       0.10680000       0.42170000
     4  C          0.61800000       0.39320000       0.92170000
     5  C          0.61800000       0.60680000       0.42170000
     6  C          0.88200000       0.89320000       0.92170000
     7  C          0.11800000       0.89320000       0.57830000
     8  C          0.38200000       0.60680000       0.07830000
     9  C          0.27640000       0.38000000       0.54110000
    10  C          0.22360000       0.12000000       0.04110000
    11  C          0.77640000       0.12000000       0.45890000
    12  C          0.72360000       0.38000000       0.95890000
    13  C          0.72360000       0.62000000       0.45890000
    14  C          0.77640000       0.88000000       0.95890000
    15  C          0.22360000       0.88000000       0.54110000
    16  C          0.27640000       0.62000000       0.04110000
    17  C          0.22640000       0.46310000       0.44110000
    18  C          0.27360000       0.03690000       0.94110000
    19  C          0.72640000       0.03690000       0.55890000
    20  C          0.77360000       0.46310000       0.05890000
    21  C          0.77360000       0.53690000       0.55890000
    22  C          0.72640000       0.96310000       0.05890000
    23  C          0.27360000       0.96310000       0.44110000
    24  C          0.22640000       0.53690000       0.94110000
    25  C          0.12890000       0.45070000       0.40690000
    26  C          0.37110000       0.04930000       0.90690000
    27  C          0.62890000       0.04930000       0.59310000
    28  C          0.87110000       0.45070000       0.09310000
    29  C          0.87110000       0.54930000       0.59310000
    30  C          0.62890000       0.95070000       0.09310000
    31  C          0.37110000       0.95070000       0.40690000
    32  C          0.12890000       0.54930000       0.90690000
    33  C          0.07940000       0.35540000       0.47170000
    34  C          0.42060000       0.14460000       0.97170000
    35  C          0.57940000       0.14460000       0.52830000
    36  C          0.92060000       0.35540000       0.02830000
    37  C          0.92060000       0.64460000       0.52830000
    38  C          0.57940000       0.85540000       0.02830000
    39  C          0.42060000       0.85540000       0.47170000
    40  C          0.07940000       0.64460000       0.97170000
    41  C          0.12760000       0.27230000       0.57100000
    42  C          0.37240000       0.22770000       0.07100000
    43  C          0.62760000       0.22770000       0.42900000
    44  C          0.87240000       0.27230000       0.92900000
    45  C          0.87240000       0.72770000       0.42900000
    46  C          0.62760000       0.77230000       0.92900000
    47  C          0.37240000       0.77230000       0.57100000
    48  C          0.12760000       0.72770000       0.07100000
    49  C          0.22510000       0.28440000       0.60540000
    50  C          0.27490000       0.21560000       0.10540000
    51  C          0.72510000       0.21560000       0.39460000
    52  C          0.77490000       0.28440000       0.89460000
    53  C          0.77490000       0.71560000       0.39460000
    54  C          0.72510000       0.78440000       0.89460000
    55  C          0.27490000       0.78440000       0.60540000
    56  C          0.22510000       0.71560000       0.10540000
    57  H          0.26160000       0.53290000       0.39300000
    58  H          0.23840000       0.96710000       0.89300000
    59  H          0.76160000       0.96710000       0.60700000
    60  H          0.73840000       0.53290000       0.10700000
    61  H          0.73840000       0.46710000       0.60700000
    62  H          0.76160000       0.03290000       0.10700000
    63  H          0.23840000       0.03290000       0.39300000
    64  H          0.26160000       0.46710000       0.89300000
    65  H          0.09400000       0.51160000       0.33440000
    66  H          0.40600000      -0.01160000       0.83440000
    67  H          0.59400000      -0.01160000       0.66560000
    68  H          0.90600000       0.51160000       0.16560000
    69  H          0.90600000       0.48840000       0.66560000
    70  H          0.59400000       0.01160000       0.16560000
    71  H          0.40600000       0.01160000       0.33440000
    72  H          0.09400000       0.48840000       0.83440000
    73  H          0.00880000       0.34660000       0.44680000
    74  H          0.49120000       0.15340000       0.94680000
    75  H          0.50880000       0.15340000       0.55320000
    76  H         -0.00880000       0.34660000       0.05320000
    77  H         -0.00880000       0.65340000       0.55320000
    78  H          0.50880000       0.84660000       0.05320000
    79  H          0.49120000       0.84660000       0.44680000
    80  H          0.00880000       0.65340000       0.94680000
    81  H          0.09170000       0.20260000       0.61850000
    82  H          0.40830000       0.29740000       0.11850000
    83  H          0.59170000       0.29740000       0.38150000
    84  H          0.90830000       0.20260000       0.88150000
    85  H          0.90830000       0.79740000       0.38150000
    86  H          0.59170000       0.70260000       0.88150000
    87  H          0.40830000       0.70260000       0.61850000
    88  H          0.09170000       0.79740000       0.11850000
    89  H          0.25930000       0.22320000       0.67790000
    90  H          0.24070000       0.27680000       0.17790000
    91  H          0.75930000       0.27680000       0.32210000
    92  H          0.74070000       0.22320000       0.82210000
    93  H          0.74070000       0.77680000       0.32210000
    94  H          0.75930000       0.72320000       0.82210000
    95  H          0.24070000       0.72320000       0.67790000
    96  H          0.25930000       0.77680000       0.17790000
    97  H          0.39720000       0.47840000       0.59500000
    98  H          0.10280000       0.02160000       0.09500000
    99  H          0.89720000       0.02160000       0.40500000
   100  H          0.60280000       0.47840000       0.90500000
   101  H          0.60280000       0.52160000       0.40500000
   102  H          0.89720000       0.97840000       0.90500000
   103  H          0.10280000       0.97840000       0.59500000
   104  H          0.39720000       0.52160000       0.09500000
   105  H          0.41920000       0.36240000       0.47240000
   106  H          0.08080000       0.13760000       0.97240000
   107  H          0.91920000       0.13760000       0.52760000
   108  H          0.58080000       0.36240000       0.02760000
   109  H          0.58080000       0.63760000       0.52760000
   110  H          0.91920000       0.86240000       0.02760000
   111  H          0.08080000       0.86240000       0.47240000
   112  H          0.41920000       0.63760000       0.97240000
   113  H          0.40020000       0.34920000       0.68950000
   114  H          0.09980000       0.15080000       0.18950000
   115  H          0.90020000       0.15080000       0.31050000
   116  H          0.59980000       0.34920000       0.81050000
   117  H          0.59980000       0.65080000       0.31050000
   118  H          0.90020000       0.84920000       0.81050000
   119  H          0.09980000       0.84920000       0.68950000
   120  H          0.40020000       0.65080000       0.18950000
