data_TOLUEN
_symmetry_space_group_name_H-M    'P1'
_symmetry_Int_Tables_number       1
loop_
_symmetry_equiv_pos_site_id
_symmetry_equiv_pos_as_xyz
1 x,y,z
_cell_length_a                   7.6662
_cell_length_b                   5.8322
_cell_length_c                   26.981
_cell_angle_alpha                90.0
_cell_angle_beta                 105.733
_cell_angle_gamma                90.0
loop_
_atom_site_label
_atom_site_type_symbol
_atom_site_fract_x
_atom_site_fract_y
_atom_site_fract_z
     1  C          0.19000000       0.75160000       0.98190000
     2  C          0.81000000       0.25160000       0.51810000
     3  C          0.81000000       0.24840000       0.01810000
     4  C          0.19000000       0.74840000       0.48190000
     5  C          0.22990000       0.61250000       0.03000000
     6  C          0.77010000       0.11250000       0.47000000
     7  C          0.77010000       0.38750000       0.97000000
     8  C          0.22990000       0.88750000       0.53000000
     9  C          0.32120000       0.40430000       0.03390000
    10  C          0.67880000       0.90430000       0.46610000
    11  C          0.67880000       0.59570000       0.96610000
    12  C          0.32120000       0.09570000       0.53390000
    13  C          0.35760000       0.27580000       0.07820000
    14  C          0.64240000       0.77580000       0.42180000
    15  C          0.64240000       0.72420000       0.92180000
    16  C          0.35760000       0.22420000       0.57820000
    17  C          0.30390000       0.35230000       0.12010000
    18  C          0.69610000       0.85230000       0.37990000
    19  C          0.69610000       0.64770000       0.87990000
    20  C          0.30390000       0.14770000       0.62010000
    21  C          0.21250000       0.55720000       0.11700000
    22  C          0.78750000       0.05720000       0.38300000
    23  C          0.78750000       0.44280000       0.88300000
    24  C          0.21250000       0.94280000       0.61700000
    25  C          0.17700000       0.68680000       0.07280000
    26  C          0.82300000       0.18680000       0.42720000
    27  C          0.82300000       0.31320000       0.92720000
    28  C          0.17700000       0.81320000       0.57280000
    29  H          0.27880000       0.70940000       0.96380000
    30  H          0.72120000       0.20940000       0.53620000
    31  H          0.72120000       0.29060000       0.03620000
    32  H          0.27880000       0.79060000       0.46380000
    33  H          0.06550000       0.72380000       0.95740000
    34  H          0.93450000       0.22380000       0.54260000
    35  H          0.93450000       0.27620000       0.04260000
    36  H          0.06550000       0.77620000       0.45740000
    37  H          0.19500000       0.91160000       0.99200000
    38  H          0.80500000       0.41160000       0.50800000
    39  H          0.80500000       0.08840000       0.00800000
    40  H          0.19500000       0.58840000       0.49200000
    41  H          0.36980000       0.35630000       0.00510000
    42  H          0.63020000       0.85630000       0.49490000
    43  H          0.63020000       0.64370000      -0.00510000
    44  H          0.36980000       0.14370000       0.50510000
    45  H          0.41870000       0.13720000       0.07990000
    46  H          0.58130000       0.63720000       0.42010000
    47  H          0.58130000       0.86280000       0.92010000
    48  H          0.41870000       0.36280000       0.57990000
    49  H          0.33260000       0.26920000       0.15150000
    50  H          0.66740000       0.76920000       0.34850000
    51  H          0.66740000       0.73080000       0.84850000
    52  H          0.33260000       0.23080000       0.65150000
    53  H          0.16270000       0.60140000       0.14490000
    54  H          0.83730000       0.10140000       0.35510000
    55  H          0.83730000       0.39860000       0.85510000
    56  H          0.16270000       0.89860000       0.64490000
    57  H          0.11150000       0.83500000       0.06920000
    58  H          0.88850000       0.33500000       0.43080000
    59  H          0.88850000       0.16500000       0.93080000
    60  H          0.11150000       0.66500000       0.56920000
    61  C          0.27160000       0.26190000       0.38480000
    62  C          0.72840000       0.76190000       0.11520000
    63  C          0.72840000       0.73810000       0.61520000
    64  C          0.27160000       0.23810000       0.88480000
    65  C          0.25390000       0.42600000       0.34080000
    66  C          0.74610000       0.92600000       0.15920000
    67  C          0.74610000       0.57400000       0.65920000
    68  C          0.25390000       0.07400000       0.84080000
    69  C          0.13480000       0.61010000       0.33320000
    70  C          0.86520000       0.11010000       0.16680000
    71  C          0.86520000       0.38990000       0.66680000
    72  C          0.13480000       0.88990000       0.83320000
    73  C          0.12370000       0.76230000       0.29270000
    74  C          0.87630000       0.26230000       0.20730000
    75  C          0.87630000       0.23770000       0.70730000
    76  C          0.12370000       0.73770000       0.79270000
    77  C          0.23150000       0.73400000       0.26020000
    78  C          0.76850000       0.23400000       0.23980000
    79  C          0.76850000       0.26600000       0.73980000
    80  C          0.23150000       0.76600000       0.76020000
    81  C          0.34800000       0.55120000       0.26690000
    82  C          0.65200000       0.05120000       0.23310000
    83  C          0.65200000       0.44880000       0.73310000
    84  C          0.34800000       0.94880000       0.76690000
    85  C          0.35920000       0.39940000       0.30710000
    86  C          0.64080000       0.89940000       0.19290000
    87  C          0.64080000       0.60060000       0.69290000
    88  C          0.35920000       0.10060000       0.80710000
    89  H          0.22070000       0.33620000       0.40980000
    90  H          0.77930000       0.83620000       0.09020000
    91  H          0.77930000       0.66380000       0.59020000
    92  H          0.22070000       0.16380000       0.90980000
    93  H          0.39910000       0.22350000       0.39780000
    94  H          0.60090000       0.72350000       0.10220000
    95  H          0.60090000       0.77650000       0.60220000
    96  H          0.39910000       0.27650000       0.89780000
    97  H          0.20690000       0.12210000       0.37490000
    98  H          0.79310000       0.62210000       0.12510000
    99  H          0.79310000       0.87790000       0.62510000
   100  H          0.20690000       0.37790000       0.87490000
   101  H          0.06230000       0.62570000       0.35620000
   102  H          0.93770000       0.12570000       0.14380000
   103  H          0.93770000       0.37430000       0.64380000
   104  H          0.06230000       0.87430000       0.85620000
   105  H          0.04160000       0.89770000       0.28720000
   106  H          0.95840000       0.39770000       0.21280000
   107  H          0.95840000       0.10230000       0.71280000
   108  H          0.04160000       0.60230000       0.78720000
   109  H          0.22090000       0.83120000       0.23110000
   110  H          0.77910000       0.33120000       0.26890000
   111  H          0.77910000       0.16880000       0.76890000
   112  H          0.22090000       0.66880000       0.73110000
   113  H          0.41880000       0.52970000       0.24320000
   114  H          0.58120000       0.02970000       0.25680000
   115  H          0.58120000       0.47030000       0.75680000
   116  H          0.41880000       0.97030000       0.74320000
   117  H          0.44440000       0.26790000       0.31300000
   118  H          0.55560000       0.76790000       0.18700000
   119  H          0.55560000       0.73210000       0.68700000
   120  H          0.44440000       0.23210000       0.81300000
