data_TOZSOT01
_symmetry_space_group_name_H-M    'P1'
_symmetry_Int_Tables_number       1
loop_
_symmetry_equiv_pos_site_id
_symmetry_equiv_pos_as_xyz
1 x,y,z
_cell_length_a                   15.6115
_cell_length_b                   3.84149
_cell_length_c                   21.9747
_cell_angle_alpha                90.0
_cell_angle_beta                 90.743
_cell_angle_gamma                90.0
loop_
_atom_site_label
_atom_site_type_symbol
_atom_site_fract_x
_atom_site_fract_y
_atom_site_fract_z
     1  O          0.35722000       0.57096000       0.69352110
     2  O          0.14278000       0.07096000       0.80647890
     3  O          0.64278000       0.42904000       0.30647890
     4  O          0.85722000       0.92904000       0.19352110
     5  O          0.49022000       0.73127000       0.71082120
     6  O          0.00978000       0.23127000       0.78917880
     7  O          0.50978000       0.26873000       0.28917880
     8  O          0.99022000       0.76873000       0.21082120
     9  O          0.61618180       0.55246000       0.63231110
    10  O          0.88381820       0.05246000       0.86768890
    11  O          0.38381820       0.44754000       0.36768890
    12  O          0.11618180       0.94754000       0.13231110
    13  N          0.57852000       0.25768000       0.55023140
    14  N          0.92148000       0.75768000       0.94976860
    15  N          0.42148000       0.74232000       0.44976860
    16  N          0.07852000       0.24232000       0.05023140
    17  N          0.66742000       0.30328000       0.55050150
    18  N          0.83258000       0.80328000       0.94949850
    19  N          0.33258000       0.69672000       0.44949850
    20  N          0.16742000       0.19672000       0.05050150
    21  C          0.29313000       0.42978000       0.65701170
    22  C          0.20687000       0.92978000       0.84298830
    23  C          0.70687000       0.57022000       0.34298830
    24  C          0.79313000       0.07022000       0.15701170
    25  C          0.21173000       0.43531000       0.67992000
    26  C          0.28827000       0.93531000       0.82008000
    27  C          0.78827000       0.56469000       0.32008000
    28  C          0.71173000       0.06469000       0.17992000
    29  H          0.20020000       0.51580000       0.72241700
    30  H          0.29980000       0.01580000       0.77758300
    31  H          0.79980000       0.48420000       0.27758300
    32  H          0.70020000      -0.01580000       0.22241700
    33  C          0.14633000       0.29621000       0.64392000
    34  C          0.35367000       0.79621000       0.85608000
    35  C          0.85367000       0.70379000       0.35608000
    36  C          0.64633000       0.20379000       0.14392000
    37  H          0.09130000       0.29780000       0.66211600
    38  H          0.40870000       0.79780000       0.83788400
    39  H          0.90870000       0.70220000       0.33788400
    40  H          0.59130000       0.20220000       0.16211600
    41  C          0.16343000       0.16141000       0.58722000
    42  C          0.33657000       0.66141000       0.91278000
    43  C          0.83657000       0.83859000       0.41278000
    44  C          0.66343000       0.33859000       0.08722000
    45  H          0.11420000       0.06180000       0.56001600
    46  H          0.38580000       0.56180000       0.93998400
    47  H          0.88580000       0.93820000       0.43998400
    48  H          0.61420000       0.43820000       0.06001600
    49  C          0.24503000       0.15631000       0.56512000
    50  C          0.25497000       0.65631000       0.93488000
    51  C          0.75497000       0.84369000       0.43488000
    52  C          0.74503000       0.34369000       0.06512000
    53  H          0.25430000       0.07680000       0.52591700
    54  H          0.24570000       0.57680000       0.97408300
    55  H          0.74570000       0.92320000       0.47408300
    56  H          0.75430000       0.42320000       0.02591700
    57  C          0.31293000       0.29078000       0.60069160
    58  C          0.18707000       0.79078000       0.89930840
    59  C          0.68707000       0.70922000       0.39930840
    60  C          0.81293000       0.20922000       0.10069160
    61  C          0.39993000       0.29159000       0.58276180
    62  C          0.10007000       0.79159000       0.91723820
    63  C          0.60007000       0.70841000       0.41723820
    64  C          0.89993000       0.20841000       0.08276180
    65  H          0.41420000       0.20680000       0.54231600
    66  H          0.08580000       0.70680000       0.95768400
    67  H          0.58580000       0.79320000       0.45768400
    68  H          0.91420000       0.29320000       0.04231600
    69  C          0.46263000       0.42698000       0.61863160
    70  C          0.03737000       0.92698000       0.88136840
    71  C          0.53737000       0.57302000       0.38136840
    72  C          0.96263000       0.07302000       0.11863160
    73  C          0.44083000       0.58459000       0.67627180
    74  C          0.05917000       0.08459000       0.82372820
    75  C          0.55917000       0.41541000       0.32372820
    76  C          0.94083000       0.91541000       0.17627180
    77  C          0.54983000       0.40988000       0.59875170
    78  C          0.95017000       0.90988000       0.90124830
    79  C          0.45017000       0.59012000       0.40124830
    80  C          0.04983000       0.09012000       0.09875170
    81  C          0.68643000       0.47748000       0.59857180
    82  C          0.81357000      -0.02252000       0.90142820
    83  C          0.31357000       0.52252000       0.40142820
    84  C          0.18643000       0.02252000       0.09857180
    85  C          0.77073000       0.58188000       0.62124190
    86  C          0.72927000       0.08188000       0.87875810
    87  C          0.22927000       0.41812000       0.37875810
    88  C          0.27073000       0.91812000       0.12124190
    89  C          0.84153000       0.52641000       0.58492000
    90  C          0.65847000       0.02641000       0.91508000
    91  C          0.15847000       0.47359000       0.41508000
    92  C          0.34153000      -0.02641000       0.08492000
    93  H          0.83920000       0.43780000       0.54521600
    94  H          0.66080000       0.93780000       0.95478400
    95  H          0.16080000       0.56220000       0.45478400
    96  H          0.33920000       0.06220000       0.04521600
    97  C          0.92273000       0.60981100       0.60643000
    98  C          0.57727000       0.10981100       0.89357000
    99  C          0.07727000       0.39018900       0.39357000
   100  C          0.42273000       0.89018900       0.10643000
   101  H          0.96730000       0.58110000       0.57520000
   102  H          0.53270000       0.08110000       0.92480000
   103  H          0.03270000       0.41890000       0.42480000
   104  H          0.46730000       0.91890000       0.07520000
   105  C          0.93164000       0.75241100       0.66343000
   106  C          0.56836000       0.25241100       0.83657000
   107  C          0.06836000       0.24758900       0.33657000
   108  C          0.43164000       0.74758900       0.16343000
   109  H          0.98730000       0.79990000       0.67611800
   110  H          0.51270000       0.29990000       0.82388200
   111  H          0.01270000       0.20010000       0.32388200
   112  H          0.48730000       0.70010000       0.17611800
   113  C          0.86353000       0.81311000       0.69942000
   114  C          0.63647000       0.31311000       0.80058000
   115  C          0.13647000       0.18689000       0.30058000
   116  C          0.36353000       0.68689000       0.19942000
   117  H          0.86930000       0.90710000       0.74320000
   118  H          0.63070000       0.40710000       0.75680000
   119  H          0.13070000       0.09290000       0.25680000
   120  H          0.36930000       0.59290000       0.24320000
   121  C          0.78183000       0.73331000       0.67782000
   122  C          0.71817000       0.23331000       0.82218000
   123  C          0.21817000       0.26669000       0.32218000
   124  C          0.28183000       0.76669000       0.17782000
   125  H          0.73820000       0.76980000       0.70221500
   126  H          0.76180000       0.26980000       0.79778500
   127  H          0.26180000       0.23020000       0.29778500
   128  H          0.23820000       0.73020000       0.20221500
