data_TOZSOT
_symmetry_space_group_name_H-M    'P1'
_symmetry_Int_Tables_number       1
loop_
_symmetry_equiv_pos_site_id
_symmetry_equiv_pos_as_xyz
1 x,y,z
_cell_length_a                   13.907511
_cell_length_b                   5.15435
_cell_length_c                   18.801016
_cell_angle_alpha                90.0
_cell_angle_beta                 97.7728
_cell_angle_gamma                90.0
loop_
_atom_site_label
_atom_site_type_symbol
_atom_site_fract_x
_atom_site_fract_y
_atom_site_fract_z
     1  O          0.76161180       0.93655000       0.36464140
     2  O          0.73838820       0.43655000       0.13535860
     3  O          0.23838820       0.06345000       0.63535860
     4  O          0.26161180       0.56345000       0.86464140
     5  O          0.84942000       0.62676000       0.42134170
     6  O          0.65058000       0.12676000       0.07865830
     7  O          0.15058000       0.37324000       0.57865830
     8  O          0.34942000       0.87324000       0.92134170
     9  O          0.77974160       0.33654000       0.52195120
    10  O          0.72025840       0.83654000       0.97804880
    11  O          0.22025840       0.66346000       0.47804880
    12  O          0.27974160       0.16346000       0.02195120
    13  N          0.63492000       0.43226000       0.54983180
    14  N          0.86508000       0.93226000       0.95016820
    15  N          0.36508000       0.56774000       0.45016820
    16  N          0.13492000       0.06774000       0.04983180
    17  N          0.67462000       0.23126000       0.59440180
    18  N          0.82538000       0.73126000       0.90559820
    19  N          0.32538000       0.76874000       0.40559820
    20  N          0.17462000       0.26874000       0.09440180
    21  C          0.67742000       0.07627000       0.34981180
    22  C          0.82258000       0.57627000       0.15018820
    23  C          0.32258000       0.92373000       0.65018820
    24  C          0.17742000       0.42373000       0.84981180
    25  C          0.67453000       0.26618000       0.29932000
    26  C          0.82547000       0.76618000       0.20068000
    27  C          0.32547000       0.73382000       0.70068000
    28  C          0.17453000       0.23382000       0.79932000
    29  H          0.72530000       0.27180000       0.27320000
    30  H          0.77470000       0.77180000       0.22680000
    31  H          0.27470000       0.72820000       0.72680000
    32  H          0.22530000       0.22820000       0.77320000
    33  C          0.59233000       0.40628000       0.28272000
    34  C          0.90767000       0.90628000       0.21728000
    35  C          0.40767000       0.59372000       0.71728000
    36  C          0.09233000       0.09372000       0.78272000
    37  H          0.58630000       0.53490000       0.24320000
    38  H          0.91370000       0.03490000       0.25680000
    39  H          0.41370000       0.46510000       0.75680000
    40  H          0.08630000       0.96510000       0.74320000
    41  C          0.51283000       0.36348000       0.31702000
    42  C          0.98717000       0.86348000       0.18298000
    43  C          0.48717000       0.63652000       0.68298000
    44  C          0.01283000       0.13652000       0.81702000
    45  H          0.46030000       0.45770000       0.31231800
    46  H          0.03970000       0.95770000       0.18768200
    47  H          0.53970000       0.54230000       0.68768200
    48  H          0.96030000       0.04230000       0.81231800
    49  C          0.51453000       0.17347000       0.36852000
    50  C          0.98547000       0.67347000       0.13148000
    51  C          0.48547000       0.82653000       0.63148000
    52  C          0.01453000       0.32653000       0.86852000
    53  H          0.45530000       0.14160000       0.39221900
    54  H          0.04470000       0.64160000       0.10778100
    55  H          0.54470000       0.85840000       0.60778100
    56  H          0.95530000       0.35840000       0.89221900
    57  C          0.59763000       0.02266000       0.38567180
    58  C          0.90237000       0.52266000       0.11432820
    59  C          0.40237000      -0.02266000       0.61432820
    60  C          0.09763000       0.47734000       0.88567180
    61  C          0.60813000       0.82187000       0.43839190
    62  C          0.89187000       0.32187000       0.06160810
    63  C          0.39187000       0.17813000       0.56160810
    64  C          0.10813000       0.67813000       0.93839190
    65  H          0.54530000       0.78070000       0.46420000
    66  H          0.95470000       0.28070000       0.03580000
    67  H          0.45470000       0.21930000       0.53580000
    68  H          0.04530000       0.71930000       0.96420000
    69  C          0.69222000       0.68586000       0.45400180
    70  C          0.80778000       0.18586000       0.04599820
    71  C          0.30778000       0.31414000       0.54599820
    72  C          0.19222000       0.81414000       0.95400180
    73  C          0.77423000       0.74067000       0.41491190
    74  C          0.72577000       0.24067000       0.08508810
    75  C          0.22577000       0.25933000       0.58508810
    76  C          0.27423000       0.75933000       0.91491190
    77  C          0.69952000       0.48837000       0.50841180
    78  C          0.80048000      -0.01163000       0.99158820
    79  C          0.30048000       0.51163000       0.49158820
    80  C          0.19952000       0.01163000       0.00841180
    81  C          0.75763000       0.18087000       0.57661190
    82  C          0.74237000       0.68087000       0.92338810
    83  C          0.24237000       0.81913000       0.42338810
    84  C          0.25763000       0.31913000       0.07661190
    85  C          0.82933000      -0.01007000       0.60542000
    86  C          0.67067000       0.48993000       0.89458000
    87  C          0.17067000       0.01007000       0.39458000
    88  C          0.32933000       0.51007000       0.10542000
    89  C          0.80793000       0.82521000       0.65962000
    90  C          0.69207000       0.32521000       0.84038000
    91  C          0.19207000       0.17479000       0.34038000
    92  C          0.30793000       0.67479000       0.15962000
    93  H          0.75430000       0.84840000       0.67631700
    94  H          0.74570000       0.34840000       0.82368300
    95  H          0.24570000       0.15160000       0.32368300
    96  H          0.25430000       0.65160000       0.17631700
    97  C          0.87524000       0.63621000       0.68723000
    98  C          0.62476000       0.13621000       0.81277000
    99  C          0.12476000       0.36379000       0.31277000
   100  C          0.37524000       0.86379000       0.18723000
   101  H          0.86440000       0.53090000       0.72530000
   102  H          0.63560000       0.03090000       0.77470000
   103  H          0.13560000       0.46910000       0.27470000
   104  H          0.36440000       0.96910000       0.22530000
   105  C          0.96063000       0.61372000       0.65913000
   106  C          0.53937000       0.11372000       0.84087000
   107  C          0.03937000       0.38628000       0.34087000
   108  C          0.46063000       0.88628000       0.15913000
   109  H          0.00730000       0.48920000       0.68220000
   110  H          0.49270000      -0.01080000       0.81780000
   111  H         -0.00730000       0.51080000       0.31780000
   112  H          0.50730000       0.01080000       0.18220000
   113  C          0.98014000       0.77461000       0.60663000
   114  C          0.51986000       0.27461000       0.89337000
   115  C          0.01986000       0.22539000       0.39337000
   116  C          0.48014000       0.72539000       0.10663000
   117  H          0.03830000       0.75530000       0.58720000
   118  H          0.46170000       0.25530000       0.91280000
   119  H          0.96170000       0.24470000       0.41280000
   120  H          0.53830000       0.74470000       0.08720000
   121  C          0.91573000       0.96572000       0.57992000
   122  C          0.58427000       0.46572000       0.92008000
   123  C          0.08427000       0.03428000       0.42008000
   124  C          0.41573000       0.53428000       0.07992000
   125  H          0.92930000       0.09070000       0.53920000
   126  H          0.57070000       0.59070000       0.96080000
   127  H          0.07070000       0.90930000       0.46080000
   128  H          0.42930000       0.40930000       0.03920000
