data_TOZSOT02
_symmetry_space_group_name_H-M    'P1'
_symmetry_Int_Tables_number       1
loop_
_symmetry_equiv_pos_site_id
_symmetry_equiv_pos_as_xyz
1 x,y,z
_cell_length_a                   3.91588
_cell_length_b                   17.7173
_cell_length_c                   18.8323
_cell_angle_alpha                90.0
_cell_angle_beta                 94.67016
_cell_angle_gamma                90.0
loop_
_atom_site_label
_atom_site_type_symbol
_atom_site_fract_x
_atom_site_fract_y
_atom_site_fract_z
     1  O          0.41356000       0.46350150       0.74455140
     2  O          0.08644000       0.96350150       0.75544860
     3  O          0.58644000       0.53649850       0.25544860
     4  O          0.91356000       0.03649850       0.24455140
     5  O          0.32958000       0.35074160       0.69807160
     6  O          0.17042000       0.85074160       0.80192840
     7  O          0.67042000       0.64925840       0.30192840
     8  O          0.82958000       0.14925840       0.19807160
     9  O          0.53226000       0.31861130       0.56545130
    10  O         -0.03226000       0.81861130       0.93454870
    11  O          0.46774000       0.68138870       0.43454870
    12  O          0.03226000       0.18138870       0.06545130
    13  N          0.82238000       0.40721180       0.51393180
    14  N          0.67762000       0.90721180       0.98606820
    15  N          0.17762000       0.59278820       0.48606820
    16  N          0.32238000       0.09278820       0.01393180
    17  N          0.80198000       0.34341190       0.46962180
    18  N          0.69802000       0.84341190       0.03037820
    19  N          0.19802000       0.65658810       0.53037820
    20  N          0.30198000       0.15658810       0.96962180
    21  C          0.52469000       0.53722000       0.74172000
    22  C         -0.02469000       0.03722000       0.75828000
    23  C          0.47531000       0.46278000       0.25828000
    24  C          0.02469000       0.96278000       0.24172000
    25  C          0.48041000       0.58233000       0.79952000
    26  C          0.01959000       0.08233000       0.70048000
    27  C          0.51959000       0.41767000       0.20048000
    28  C         -0.01959000       0.91767000       0.29952000
    29  H          0.37690000       0.56520000       0.84020000
    30  H          0.12310000       0.06520000       0.65980000
    31  H          0.62310000       0.43480000       0.15980000
    32  H          0.87690000       0.93480000       0.34020000
    33  C          0.58611100       0.65693000       0.79793000
    34  C          0.91388900       0.15693000       0.70207000
    35  C          0.41388900       0.34307000       0.20207000
    36  C          0.08611100       0.84307000       0.29793000
    37  H          0.52980000       0.68620000       0.83620000
    38  H         -0.02980000       0.18620000       0.66380000
    39  H          0.47020000       0.31380000       0.16380000
    40  H          0.02980000       0.81380000       0.33620000
    41  C          0.73481000       0.68523000       0.73952000
    42  C          0.76519000       0.18523000       0.76048000
    43  C          0.26519000       0.31477000       0.26048000
    44  C          0.23481000       0.81477000       0.23952000
    45  H          0.81510000       0.73630000       0.74020000
    46  H          0.68490000       0.23630000       0.75980000
    47  H          0.18490000       0.26370000       0.25980000
    48  H          0.31510000       0.76370000       0.24020000
    49  C          0.77889000       0.63962000       0.68232000
    50  C          0.72111000       0.13962000       0.81768000
    51  C          0.22111000       0.36038000       0.31768000
    52  C          0.27889000       0.86038000       0.18232000
    53  H          0.88980000       0.65920000       0.63920000
    54  H          0.61020000       0.15920000       0.86080000
    55  H          0.11020000       0.34080000       0.36080000
    56  H          0.38980000       0.84080000       0.13920000
    57  C          0.67448000       0.56402000       0.68265190
    58  C          0.82552000       0.06402000       0.81734810
    59  C          0.32552000       0.43598000       0.31734810
    60  C          0.17448000       0.93598000       0.18265190
    61  C          0.71039000       0.51302000       0.62542000
    62  C          0.78961000       0.01302000       0.87458000
    63  C          0.28961000       0.48698000       0.37458000
    64  C          0.21039000       0.98698000       0.12542000
    65  H          0.81180000       0.52851900       0.58891900
    66  H          0.68820000       0.02851900       0.91108100
    67  H          0.18820000       0.47148100       0.41108100
    68  H          0.31180000       0.97148100       0.08891900
    69  C          0.60568000       0.43992000       0.62857190
    70  C          0.89432000       0.93992000       0.87142810
    71  C          0.39432000       0.56008000       0.37142810
    72  C          0.10568000       0.06008000       0.12857190
    73  C          0.44201000       0.41302000       0.68922000
    74  C          0.05799000       0.91302000       0.81078000
    75  C          0.55799000       0.58698000       0.31078000
    76  C          0.94201000       0.08698000       0.18922000
    77  C          0.65909000       0.39052000       0.56862000
    78  C          0.84091000       0.89052000       0.93138000
    79  C          0.34091000       0.60948000       0.43138000
    80  C          0.15909000       0.10948000       0.06862000
    81  C          0.62958000       0.29342000       0.50172000
    82  C          0.87042000       0.79342000      -0.00172000
    83  C          0.37042000       0.70658000       0.49828000
    84  C          0.12958000       0.20658000       0.00172000
    85  C          0.53128000       0.21812000       0.47672000
    86  C         -0.03128000       0.71812000       0.02328000
    87  C          0.46872000       0.78188000       0.52328000
    88  C          0.03128000       0.28188000       0.97672000
    89  C          0.59211000       0.19773000       0.40812000
    90  C          0.90789000       0.69773000       0.09188000
    91  C          0.40789000       0.80227000       0.59188000
    92  C          0.09211000       0.30227000       0.90812000
    93  H          0.68190000       0.23220000       0.37420000
    94  H          0.81810000       0.73220000       0.12580000
    95  H          0.31810000       0.76780000       0.62580000
    96  H          0.18190000       0.26780000       0.87420000
    97  C          0.49561000       0.12693000       0.38253000
    98  C          0.00439000       0.62693000       0.11747000
    99  C          0.50439000       0.87307000       0.61747000
   100  C         -0.00439000       0.37307000       0.88253000
   101  H          0.55310000       0.11520000       0.33430000
   102  H          0.94690000       0.61520000       0.16570000
   103  H          0.44690000       0.88480000       0.66570000
   104  H          0.05310000       0.38480000       0.83430000
   105  C          0.35261100       0.07653000       0.42663000
   106  C          0.14738900       0.57653000       0.07337000
   107  C          0.64738900       0.92347000       0.57337000
   108  C          0.85261100       0.42347000       0.92663000
   109  H          0.31811000       0.02630000       0.41630000
   110  H          0.18189000       0.52630000       0.08370000
   111  H          0.68189000       0.97370000       0.58370000
   112  H          0.81811000       0.47370000       0.91630000
   113  C          0.29631100       0.09683000       0.49573000
   114  C          0.20368900       0.59683000       0.00427000
   115  C          0.70368900       0.90317000       0.50427000
   116  C          0.79631100       0.40317000      -0.00427000
   117  H          0.20310000       0.06120000       0.52920000
   118  H          0.29690000       0.56120000       0.97080000
   119  H          0.79690000       0.93880000       0.47080000
   120  H          0.70310000       0.43880000       0.02920000
   121  C          0.38699000       0.16792000       0.52092000
   122  C          0.11301000       0.66792000       0.97908000
   123  C          0.61301000       0.83208000       0.47908000
   124  C          0.88699000       0.33208000       0.02092000
   125  H          0.32180000       0.18020000       0.57020000
   126  H          0.17820000       0.68020000       0.92980000
   127  H          0.67820000       0.81980000       0.42980000
   128  H          0.82180000       0.31980000       0.07020000
