data_TOZTIN
_symmetry_space_group_name_H-M    'P1'
_symmetry_Int_Tables_number       1
loop_
_symmetry_equiv_pos_site_id
_symmetry_equiv_pos_as_xyz
1 x,y,z
_cell_length_a                   6.00597
_cell_length_b                   18.2642
_cell_length_c                   11.755912
_cell_angle_alpha                90.0
_cell_angle_beta                 99.3303
_cell_angle_gamma                90.0
loop_
_atom_site_label
_atom_site_type_symbol
_atom_site_fract_x
_atom_site_fract_y
_atom_site_fract_z
     1  C          0.95345000       0.83693160       0.12592000
     2  C          0.04655000       0.33693160       0.37408000
     3  C          0.04655000       0.16306840       0.87408000
     4  C          0.95345000       0.66306840       0.62592000
     5  H         -0.00360000       0.88380000       0.16180000
     6  H          0.00360000       0.38380000       0.33820000
     7  H          0.00360000       0.11620000       0.83820000
     8  H         -0.00360000       0.61620000       0.66180000
     9  H          0.79540000       0.82870000       0.13020000
    10  H          0.20460000       0.32870000       0.36980000
    11  H          0.20460000       0.17130000       0.86980000
    12  H          0.79540000       0.67130000       0.63020000
    13  C          0.32564000       0.79290150       0.18192000
    14  C          0.67436000       0.29290150       0.31808000
    15  C          0.67436000       0.20709850       0.81808000
    16  C          0.32564000       0.70709850       0.68192000
    17  H          0.37140000       0.83920000       0.21880000
    18  H          0.62860000       0.33920000       0.28120000
    19  H          0.62860000       0.16080000       0.78120000
    20  H          0.37140000       0.66080000       0.71880000
    21  H          0.41730000       0.75470000       0.22330000
    22  H          0.58270000       0.25470000       0.27670000
    23  H          0.58270000       0.24530000       0.77670000
    24  H          0.41730000       0.74530000       0.72330000
    25  C          0.02455000       0.70934150       0.13432000
    26  C         -0.02455000       0.20934150       0.36568000
    27  C         -0.02455000       0.29065850       0.86568000
    28  C          0.02455000       0.79065850       0.63432000
    29  H          0.86710000       0.69950000       0.13800000
    30  H          0.13290000       0.19950000       0.36200000
    31  H          0.13290000       0.30050000       0.86200000
    32  H          0.86710000       0.80050000       0.63800000
    33  H          0.11410000       0.67080000       0.17600000
    34  H          0.88590000       0.17080000       0.32400000
    35  H          0.88590000       0.32920000       0.82400000
    36  H          0.11410000       0.82920000       0.67600000
    37  C          0.22575000       0.85151160       0.00072000
    38  C          0.77425000       0.35151160       0.49928000
    39  C          0.77425000       0.14848840      -0.00072000
    40  C          0.22575000       0.64848840       0.50072000
    41  H          0.25020000       0.85250000       0.92110000
    42  H          0.74980000       0.35250000       0.57890000
    43  H          0.74980000       0.14750000       0.07890000
    44  H          0.25020000       0.64750000       0.42110000
    45  H          0.27010000       0.89870000       0.03480000
    46  H          0.72990000       0.39870000       0.46520000
    47  H          0.72990000       0.10130000       0.96520000
    48  H          0.27010000       0.60130000       0.53480000
    49  C          0.29775000       0.72486170       0.00953000
    50  C          0.70225000       0.22486170       0.49047000
    51  C          0.70225000       0.27513830      -0.00953000
    52  C          0.29775000       0.77513830       0.50953000
    53  H          0.39070000       0.68640000       0.04950000
    54  H          0.60930000       0.18640000       0.45050000
    55  H          0.60930000       0.31360000       0.95050000
    56  H          0.39070000       0.81360000       0.54950000
    57  H          0.32240000       0.72530000       0.93000000
    58  H          0.67760000       0.22530000       0.57000000
    59  H          0.67760000       0.27470000       0.07000000
    60  H          0.32240000       0.77470000       0.43000000
    61  C          0.91975000       0.76753150       0.95182000
    62  C          0.08025000       0.26753150       0.54818000
    63  C          0.08025000       0.23246850       0.04818000
    64  C          0.91975000       0.73246850       0.45182000
    65  H          0.01211000       0.64140000       0.97160000
    66  H         -0.01211000       0.14140000       0.52840000
    67  H         -0.01211000       0.35860000       0.02840000
    68  H          0.01211000       0.85860000       0.47160000
    69  H          0.94140000       0.76891400       0.87520000
    70  H          0.05860000       0.26891400       0.62480000
    71  H          0.05860000       0.23108600       0.12480000
    72  H          0.94140000       0.73108600       0.37520000
    73  H          0.76250000       0.75851700       0.95730000
    74  H          0.23750000       0.25851700       0.54270000
    75  H          0.23750000       0.24148300       0.04270000
    76  H          0.76250000       0.74148300       0.45730000
    77  N         -0.01676000       0.83948110       0.00349180
    78  N          0.01676000       0.33948110       0.49650820
    79  N          0.01676000       0.16051890      -0.00349180
    80  N         -0.01676000       0.66051890       0.50349180
    81  N          0.08794000       0.77941120       0.18926170
    82  N          0.91206000       0.27941120       0.31073830
    83  N          0.91206000       0.22058880       0.81073830
    84  N          0.08794000       0.72058880       0.68926170
    85  N          0.05844000       0.70853120       0.01274180
    86  N          0.94156000       0.20853120       0.48725820
    87  N          0.94156000       0.29146880       0.98725820
    88  N          0.05844000       0.79146880       0.51274180
    89  N          0.36623000       0.79482130       0.06252000
    90  N          0.63377000       0.29482130       0.43748000
    91  N          0.63377000       0.20517870       0.93748000
    92  N          0.36623000       0.70517870       0.56252000
    93  C          0.76376000       0.56542000       0.89873000
    94  C          0.23624000       0.06542000       0.60127000
    95  C          0.23624000       0.43458000       0.10127000
    96  C          0.76376000       0.93458000       0.39873000
    97  C          0.68896000       0.49322000       0.83924000
    98  C          0.31104000      -0.00678000       0.66076000
    99  C          0.31104000       0.50678000       0.16076000
   100  C          0.68896000       0.00678000       0.33924000
   101  H          0.80130000       0.47750000       0.79370000
   102  H          0.19870000       0.97750000       0.70630000
   103  H          0.19870000       0.52250000       0.20630000
   104  H          0.80130000       0.02250000       0.29370000
   105  H          0.67910000       0.45600000       0.89710000
   106  H          0.32090000       0.95600000       0.60290000
   107  H          0.32090000       0.54400000       0.10290000
   108  H          0.67910000       0.04400000       0.39710000
   109  C          0.38275000       0.43328160       0.70183000
   110  C          0.61725000       0.93328160       0.79817000
   111  C          0.61725000       0.56671840       0.29817000
   112  C          0.38275000       0.06671840       0.20183000
   113  C          0.47638000       0.49952000       0.76635000
   114  C          0.52362000      -0.00048000       0.73365000
   115  C          0.52362000       0.50048000       0.23365000
   116  C          0.47638000       0.00048000       0.26635000
   117  H          0.48860000       0.53780000       0.71050000
   118  H          0.51140000       0.03780000       0.78950000
   119  H          0.51140000       0.46220000       0.28950000
   120  H          0.48860000       0.96220000       0.21050000
   121  H          0.36710000       0.51580000       0.81320000
   122  H          0.63290000       0.01580000       0.68680000
   123  H          0.63290000       0.48420000       0.18680000
   124  H          0.36710000       0.98420000       0.31320000
   125  H          0.17080000       0.40430000       0.57440000
   126  H          0.82920000       0.90430000       0.92560000
   127  H          0.82920000       0.59570000       0.42560000
   128  H          0.17080000       0.09570000       0.07440000
   129  O          0.97065000       0.57954140       0.90523000
   130  O          0.02935000       0.07954140       0.59477000
   131  O          0.02935000       0.42045860       0.09477000
   132  O          0.97065000       0.92045860       0.40523000
   133  O          0.22106000       0.44964140       0.61753000
   134  O          0.77894000       0.94964140       0.88247000
   135  O          0.77894000       0.55035860       0.38247000
   136  O          0.22106000       0.05035860       0.11753000
   137  O          0.44614000       0.37300110       0.72092000
   138  O          0.55386000       0.87300110       0.77908000
   139  O          0.55386000       0.62699890       0.27908000
   140  O          0.44614000       0.12699890       0.22092000
   141  O          0.63906000       0.60292000       0.93795000
   142  O          0.36094000       0.10292000       0.56205000
   143  O          0.36094000       0.39708000       0.06205000
   144  O          0.63906000       0.89708000       0.43795000
