data_TOZTIN07
_symmetry_space_group_name_H-M    'P1'
_symmetry_Int_Tables_number       1
loop_
_symmetry_equiv_pos_site_id
_symmetry_equiv_pos_as_xyz
1 x,y,z
_cell_length_a                   11.63542
_cell_length_b                   18.36372
_cell_length_c                   14.88513
_cell_angle_alpha                90.0
_cell_angle_beta                 130.0033
_cell_angle_gamma                90.0
loop_
_atom_site_label
_atom_site_type_symbol
_atom_site_fract_x
_atom_site_fract_y
_atom_site_fract_z
     1  O         -0.02202900       0.12109400       0.20790700
     2  O          0.02202900       0.62109400       0.29209300
     3  O          0.02202900       0.87890600       0.79209300
     4  O         -0.02202900       0.37890600       0.70790700
     5  O          0.84157100       0.94533500       0.39512700
     6  O          0.15842900       0.44533500       0.10487300
     7  O          0.15842900       0.05466500       0.60487300
     8  O          0.84157100       0.55466500       0.89512700
     9  O          0.00134110       0.03843500       0.10951800
    10  O         -0.00134110       0.53843500       0.39048200
    11  O         -0.00134110       0.96156500       0.89048200
    12  O          0.00134110       0.46156500       0.60951800
    13  O          0.03428100       0.89758500       0.41610800
    14  O          0.96571900       0.39758500       0.08389200
    15  O          0.96571900       0.10241500       0.58389200
    16  O          0.03428100       0.60241500       0.91610800
    17  C          0.93428870       0.94920400       0.38190900
    18  C          0.06571130       0.44920400       0.11809100
    19  C          0.06571130       0.05079600       0.61809100
    20  C          0.93428870       0.55079600       0.88190900
    21  C         -0.01265120       0.05822600       0.18778100
    22  C          0.01265120       0.55822600       0.31221900
    23  C          0.01265120       0.94177400       0.81221900
    24  C         -0.01265120       0.44177400       0.68778100
    25  C         -0.01809140      -0.00658600       0.24694100
    26  C          0.01809140       0.49341400       0.25305900
    27  C          0.01809140       0.00658600       0.75305900
    28  C         -0.01809140       0.50658600       0.74694100
    29  H          0.08014900       0.96829400       0.29469100
    30  H          0.91985100       0.46829400       0.20530900
    31  H          0.91985100       0.03170600       0.70530900
    32  H          0.08014900       0.53170600       0.79469100
    33  H          0.90505900       0.95887900       0.18619800
    34  H          0.09494100       0.45887900       0.31380200
    35  H          0.09494100       0.04112100       0.81380200
    36  H          0.90505900       0.54112100       0.68619800
    37  C          0.94574860       0.01372600       0.32527100
    38  C          0.05425140       0.51372600       0.17472900
    39  C          0.05425140       0.98627400       0.67472900
    40  C          0.94574860       0.48627400       0.82527100
    41  H          0.02468400       0.04691800       0.38756500
    42  H          0.97531600       0.54691800       0.11243500
    43  H          0.97531600       0.95308200       0.61243500
    44  H          0.02468400       0.45308200       0.88756500
    45  H          0.84945800       0.04057800       0.27800100
    46  H          0.15054200       0.54057800       0.22199900
    47  H          0.15054200       0.95942200       0.72199900
    48  H          0.84945800       0.45942200       0.77800100
    49  H          0.02620000       0.86053000       0.45471400
    50  H          0.97380000       0.36053000       0.04528600
    51  H          0.97380000       0.13947000       0.54528600
    52  H          0.02620000       0.63947000       0.95471400
    53  H         -0.00120000       0.08096000       0.07091600
    54  H          0.00120000       0.58096000       0.42908400
    55  H          0.00120000       0.91904000       0.92908400
    56  H         -0.00120000       0.41904000       0.57091600
    57  O          0.52451100       0.12486400       0.23166700
    58  O          0.47548900       0.62486400       0.26833300
    59  O          0.47548900       0.87513600       0.76833300
    60  O          0.52451100       0.37513600       0.73166700
    61  O          0.67117100       0.94937500       0.56166700
    62  O          0.32882900       0.44937500       0.93833300
    63  O          0.32882900       0.05062500       0.43833300
    64  O          0.67117100       0.55062500       0.06166700
    65  O          0.48405100       0.89968500       0.38908700
    66  O          0.51594900       0.39968500       0.11091300
    67  O          0.51594900       0.10031500       0.61091300
    68  O          0.48405100       0.60031500       0.88908700
    69  O          0.47043110       0.04299500       0.09826800
    70  O          0.52956890       0.54299500       0.40173200
    71  O          0.52956890       0.95700500       0.90173200
    72  O          0.47043110       0.45700500       0.59826800
    73  C          0.50095120       0.06238600       0.19745100
    74  C          0.49904880       0.56238600       0.30254900
    75  C          0.49904880       0.93761400       0.80254900
    76  C          0.50095120       0.43761400       0.69745100
    77  C          0.58290120       0.95208400       0.45562100
    78  C          0.41709880       0.45208400       0.04437900
    79  C          0.41709880       0.04791600       0.54437900
    80  C          0.58290120       0.54791600       0.95562100
    81  C          0.50148140      -0.00127600       0.26127100
    82  C          0.49851860       0.49872400       0.23872900
    83  C          0.49851860       0.00127600       0.73872900
    84  C          0.50148140       0.50127600       0.76127100
    85  H          0.55724200       0.95799600       0.26130300
    86  H          0.44275800       0.45799600       0.23869700
    87  H          0.44275800       0.04200400       0.73869700
    88  H          0.55724200       0.54200400       0.76130300
    89  H          0.39687300       0.98238100       0.21836500
    90  H          0.60312700       0.48238100       0.28163500
    91  H          0.60312700       0.01761900       0.78163500
    92  H          0.39687300       0.51761900       0.71836500
    93  C          0.57198130       0.01615600       0.38720100
    94  C          0.42801870       0.51615600       0.11279900
    95  C          0.42801870       0.98384400       0.61279900
    96  C          0.57198130       0.48384400       0.88720100
    97  H          0.67404200       0.03573900       0.42825600
    98  H          0.32595800       0.53573900       0.07174400
    99  H          0.32595800       0.96426100       0.57174400
   100  H          0.67404200       0.46426100       0.92825600
   101  H          0.51214500       0.05481700       0.38653000
   102  H          0.48785500       0.55481700       0.11347000
   103  H          0.48785500       0.94518300       0.61347000
   104  H          0.51214500       0.44518300       0.88653000
   105  H          0.49320000       0.86123000       0.44051300
   106  H          0.50680000       0.36123000       0.05948700
   107  H          0.50680000       0.13877000       0.55948700
   108  H          0.49320000       0.63877000       0.94051300
   109  H          0.47420000       0.08567000       0.06031500
   110  H          0.52580000       0.58567000       0.43968500
   111  H          0.52580000       0.91433000       0.93968500
   112  H          0.47420000       0.41433000       0.56031500
   113  N         -0.00962100       0.15297500      -0.00747800
   114  N          0.00962100       0.65297500       0.50747800
   115  N          0.00962100       0.84702500       0.00747800
   116  N         -0.00962100       0.34702500       0.49252200
   117  N          0.12050100       0.21621500       0.93591200
   118  N          0.87949900       0.71621500       0.56408800
   119  N          0.87949900       0.78378500       0.06408800
   120  N          0.12050100       0.28378500       0.43591200
   121  N          0.84555900       0.21252500       0.80046200
   122  N          0.15444100       0.71252500       0.69953800
   123  N          0.15444100       0.78747500       0.19953800
   124  N          0.84555900       0.28747500       0.30046200
   125  N         -0.01781100       0.28617500       0.97912200
   126  N          0.01781100       0.78617500       0.52087800
   127  N          0.01781100       0.71382500       0.02087800
   128  N         -0.01781100       0.21382500       0.47912200
   129  C          0.85327880       0.15024600       0.86620100
   130  C          0.14672120       0.65024600       0.63379900
   131  C          0.14672120       0.84975400       0.13379900
   132  C          0.85327880       0.34975400       0.36620100
   133  H          0.85345200       0.10446500       0.83117000
   134  H          0.14654800       0.60446500       0.66883000
   135  H          0.14654800       0.89553500       0.16883000
   136  H          0.85345200       0.39553500       0.33117000
   137  H          0.76314300       0.15011600       0.85978600
   138  H          0.23685700       0.65011600       0.64021400
   139  H          0.23685700       0.84988400       0.14021400
   140  H          0.76314300       0.34988400       0.35978600
   141  C         -0.01239120       0.22223600       0.04235100
   142  C          0.01239120       0.72223600       0.45764900
   143  C          0.01239120       0.77776400       0.95764900
   144  C         -0.01239120       0.27776400       0.54235100
   145  H          0.89874300       0.22279000       0.03759100
   146  H          0.10125700       0.72279000       0.46240900
   147  H          0.10125700       0.77721000       0.96240900
   148  H          0.89874300       0.27721000       0.53759100
   149  H          0.07832100       0.22531200       0.12612000
   150  H          0.92167900       0.72531200       0.37388000
   151  H          0.92167900       0.77468800       0.87388000
   152  H          0.07832100       0.27468800       0.62612000
   153  C          0.11590120       0.28395600       0.98639900
   154  C          0.88409880       0.78395600       0.51360100
   155  C          0.88409880       0.71604400       0.01360100
   156  C          0.11590120       0.21604400       0.48639900
   157  H          0.11323200       0.32618300       0.94375900
   158  H          0.88676800       0.82618300       0.55624100
   159  H          0.88676800       0.67381700       0.05624100
   160  H          0.11323200       0.17381700       0.44375900
   161  H          0.20810900       0.28771400       0.06952500
   162  H          0.79189100       0.78771400       0.43047500
   163  H          0.79189100       0.71228600       0.93047500
   164  H          0.20810900       0.21228600       0.56952500
   165  C         -0.01857120       0.21225600       0.81218900
   166  C          0.01857120       0.71225600       0.68781100
   167  C          0.01857120       0.78774400       0.18781100
   168  C         -0.01857120       0.28774400       0.31218900
   169  H          0.97785300       0.25426200       0.76877400
   170  H          0.02214700       0.75426200       0.73122600
   171  H          0.02214700       0.74573800       0.23122600
   172  H          0.97785300       0.24573800       0.26877400
   173  H         -0.01705600       0.16723400       0.77636200
   174  H          0.01705600       0.66723400       0.72363800
   175  H          0.01705600       0.83276600       0.22363800
   176  H         -0.01705600       0.33276600       0.27636200
   177  C          0.12365120       0.15434600      -0.00029900
   178  C          0.87634880       0.65434600       0.50029900
   179  C          0.87634880       0.84565400       0.00029900
   180  C          0.12365120       0.34565400       0.49970100
   181  H          0.21562400       0.15711200       0.08305700
   182  H          0.78437600       0.65711200       0.41694300
   183  H          0.78437600       0.84288800       0.91694300
   184  H          0.21562400       0.34288800       0.58305700
   185  H          0.12760900       0.10848000       0.96680500
   186  H          0.87239100       0.60848000       0.53319500
   187  H          0.87239100       0.89152000       0.03319500
   188  H          0.12760900       0.39152000       0.46680500
   189  C          0.84597880       0.28000600       0.85381900
   190  C          0.15402120       0.78000600       0.64618100
   191  C          0.15402120       0.71999400       0.14618100
   192  C          0.84597880       0.21999400       0.35381900
   193  H          0.75582500       0.28111900       0.84733800
   194  H          0.24417500       0.78111900       0.65266200
   195  H          0.24417500       0.71888100       0.15266200
   196  H          0.75582500       0.21888100       0.34733800
   197  H          0.84095600       0.32233000       0.81020600
   198  H          0.15904400       0.82233000       0.68979400
   199  H          0.15904400       0.67767000       0.18979400
   200  H          0.84095600       0.17767000       0.31020600
   201  N          0.34210100       0.22004500       0.79965200
   202  N          0.65789900       0.72004500       0.70034800
   203  N          0.65789900       0.77995500       0.20034800
   204  N          0.34210100       0.27995500       0.29965200
   205  N          0.49627100       0.28843500       0.98387200
   206  N          0.50372900       0.78843500       0.51612800
   207  N          0.50372900       0.71156500       0.01612800
   208  N          0.49627100       0.21156500       0.48387200
   209  N          0.61603100       0.21005500       0.93183200
   210  N          0.38396900       0.71005500       0.56816800
   211  N          0.38396900       0.78994500       0.06816800
   212  N          0.61603100       0.28994500       0.43183200
   213  N          0.47717100       0.15563500       0.98712200
   214  N          0.52282900       0.65563500       0.51287800
   215  N          0.52282900       0.84436500       0.01287800
   216  N          0.47717100       0.34436500       0.48712200
   217  C          0.60830120       0.14922600      -0.00831100
   218  C          0.39169880       0.64922600       0.50831100
   219  C          0.39169880       0.85077400       0.00831100
   220  C          0.60830120       0.35077400       0.49168900
   221  H          0.70161100       0.14792400       0.07462200
   222  H          0.29838900       0.64792400       0.42537800
   223  H          0.29838900       0.85207600       0.92537800
   224  H          0.70161100       0.35207600       0.57462200
   225  H          0.60123600       0.10288900       0.95440500
   226  H          0.39876400       0.60288900       0.54559500
   227  H          0.39876400       0.89711100       0.04559500
   228  H          0.60123600       0.39711100       0.45440500
   229  C          0.49006120       0.22561600       0.04273900
   230  C          0.50993880       0.72561600       0.45726100
   231  C          0.50993880       0.77438400       0.95726100
   232  C          0.49006120       0.27438400       0.54273900
   233  H          0.40284200       0.23117500       0.03951300
   234  H          0.59715800       0.73117500       0.46048700
   235  H          0.59715800       0.76882500       0.96048700
   236  H          0.40284200       0.26882500       0.53951300
   237  H          0.58193900       0.22490200       0.12626100
   238  H          0.41806100       0.72490200       0.37373900
   239  H          0.41806100       0.77509800       0.87373900
   240  H          0.58193900       0.27509800       0.62626100
   241  C          0.33922120       0.15871600       0.86129100
   242  C          0.66077880       0.65871600       0.63870900
   243  C          0.66077880       0.84128400       0.13870900
   244  C          0.33922120       0.34128400       0.36129100
   245  H          0.32956900       0.11266900       0.82233200
   246  H          0.67043100       0.61266900       0.67766800
   247  H          0.67043100       0.88733100       0.17766800
   248  H          0.32956900       0.38733100       0.32233200
   249  H          0.25029400       0.16327800       0.85607700
   250  H          0.74970600       0.66327800       0.64392300
   251  H          0.74970600       0.83672200       0.14392300
   252  H          0.25029400       0.33672200       0.35607700
   253  C          0.47550130       0.21208600       0.80877900
   254  C          0.52449870       0.71208600       0.69122100
   255  C          0.52449870       0.78791400       0.19122100
   256  C          0.47550130       0.28791400       0.30877900
   257  H          0.47950700       0.25334600       0.76806400
   258  H          0.52049300       0.75334600       0.73193600
   259  H          0.52049300       0.74665400       0.23193600
   260  H          0.47950700       0.24665400       0.26806400
   261  H          0.46648700       0.16661700       0.76891900
   262  H          0.53351300       0.66661700       0.73108100
   263  H          0.53351300       0.83338300       0.23108100
   264  H          0.46648700       0.33338300       0.26891900
   265  C          0.62681120       0.27836600      -0.01147100
   266  C          0.37318880       0.77836600       0.51147100
   267  C          0.37318880       0.72163400       0.01147100
   268  C          0.62681120       0.22163400       0.48852900
   269  H          0.63213600       0.31987500       0.94890100
   270  H          0.36786400       0.81987500       0.55109900
   271  H          0.36786400       0.68012500       0.05109900
   272  H          0.63213600       0.18012500       0.44890100
   273  H          0.72028900       0.27802200       0.07141800
   274  H          0.27971100       0.77802200       0.42858200
   275  H          0.27971100       0.72197800       0.92858200
   276  H          0.72028900       0.22197800       0.57141800
   277  C          0.35774130       0.28812600       0.85891900
   278  C          0.64225870       0.78812600       0.64108100
   279  C          0.64225870       0.71187400       0.14108100
   280  C          0.35774130       0.21187400       0.35891900
   281  H          0.26943000       0.29418000       0.85418600
   282  H          0.73057000       0.79418000       0.64581400
   283  H          0.73057000       0.70582000       0.14581400
   284  H          0.26943000       0.20582000       0.35418600
   285  H          0.36020200       0.32982800       0.81804500
   286  H          0.63979800       0.82982800       0.68195500
   287  H          0.63979800       0.67017200       0.18195500
   288  H          0.36020200       0.17017200       0.31804500
