data_TOZTIN06
_symmetry_space_group_name_H-M    'P1'
_symmetry_Int_Tables_number       1
loop_
_symmetry_equiv_pos_site_id
_symmetry_equiv_pos_as_xyz
1 x,y,z
_cell_length_a                   6.009101
_cell_length_b                   18.26812
_cell_length_c                   11.74442
_cell_angle_alpha                90.0
_cell_angle_beta                 99.19201
_cell_angle_gamma                90.0
loop_
_atom_site_label
_atom_site_type_symbol
_atom_site_fract_x
_atom_site_fract_y
_atom_site_fract_z
     1  O          0.55324000       0.37255100       0.27940170
     2  O          0.44676000       0.87255100       0.22059830
     3  O          0.44676000       0.62744900       0.72059830
     4  O          0.55324000       0.12744900       0.77940170
     5  O          0.02824000       0.57937120       0.09392000
     6  O          0.97176000       0.07937120       0.40608000
     7  O          0.97176000       0.42062880       0.90608000
     8  O          0.02824000       0.92062880       0.59392000
     9  O          0.77845000       0.44963120       0.38263000
    10  O          0.22155000       0.94963120       0.11737000
    11  O          0.22155000       0.55036880       0.61737000
    12  O          0.77845000       0.05036880       0.88263000
    13  C          0.61675000       0.43318140       0.29863000
    14  C          0.38325000       0.93318140       0.20137000
    15  C          0.38325000       0.56681860       0.70137000
    16  C          0.61675000       0.06681860       0.79863000
    17  O          0.36275000       0.60300190       0.06094000
    18  O          0.63725000       0.10300190       0.43906000
    19  O          0.63725000       0.39699810       0.93906000
    20  O          0.36275000       0.89699810       0.56094000
    21  C          0.23655000       0.56511170       0.10043000
    22  C          0.76345000       0.06511170       0.39957000
    23  C          0.76345000       0.43488830       0.89957000
    24  C          0.23655000       0.93488830       0.60043000
    25  C          0.31006000       0.49307180       0.16034000
    26  C          0.68994000      -0.00692820       0.33966000
    27  C          0.68994000       0.50692820       0.83966000
    28  C          0.31006000       0.00692820       0.66034000
    29  H          0.19716000       0.47761700       0.20584800
    30  H          0.80284000       0.97761700       0.29415200
    31  H          0.80284000       0.52238300       0.79415200
    32  H          0.19716000       0.02238300       0.70584800
    33  H          0.31990000       0.45577100       0.10255800
    34  H          0.68010000       0.95577100       0.39744200
    35  H          0.68010000       0.54422900       0.89744200
    36  H          0.31990000       0.04422900       0.60255800
    37  C          0.52367000       0.49947190       0.23384000
    38  C          0.47633000      -0.00052810       0.26616000
    39  C          0.47633000       0.50052810       0.76616000
    40  C          0.52367000       0.00052810       0.73384000
    41  H          0.51093600       0.53784100       0.28951500
    42  H          0.48906400       0.03784100       0.21048500
    43  H          0.48906400       0.46215900       0.71048500
    44  H          0.51093600       0.96215900       0.78951500
    45  H          0.63302800       0.51575500       0.18686900
    46  H          0.36697200       0.01575500       0.31313100
    47  H          0.36697200       0.48424500       0.81313100
    48  H          0.63302800       0.98424500       0.68686900
    49  H          0.82780000       0.39991400       0.43030000
    50  H          0.17220000       0.89991400       0.06970000
    51  H          0.17220000       0.60008600       0.56970000
    52  H          0.82780000       0.10008600       0.93030000
    53  H          0.00210000       0.62741700       0.04340000
    54  H         -0.00210000       0.12741700       0.45660000
    55  H         -0.00210000       0.37258300       0.95660000
    56  H          0.00210000       0.87258300       0.54340000
    57  N          0.08733000       0.27943110       0.69019150
    58  N          0.91267000       0.77943110       0.80980850
    59  N          0.91267000       0.72056890       0.30980850
    60  N          0.08733000       0.22056890       0.19019150
    61  N         -0.01763000       0.33977100       0.50403160
    62  N          0.01763000       0.83977100      -0.00403160
    63  N          0.01763000       0.66022900       0.49596840
    64  N         -0.01763000       0.16022900       0.00403160
    65  N          0.36583000       0.29546120       0.56286170
    66  N          0.63417000       0.79546120       0.93713830
    67  N          0.63417000       0.70453880       0.43713830
    68  N          0.36583000       0.20453880       0.06286170
    69  N          0.05953000       0.20848100       0.51308160
    70  N          0.94047000       0.70848100       0.98691840
    71  N          0.94047000       0.79151900       0.48691840
    72  N          0.05953000       0.29151900       0.01308160
    73  C          0.92026000       0.26747130       0.45212000
    74  C          0.07974000       0.76747130       0.04788000
    75  C          0.07974000       0.73252870       0.54788000
    76  C          0.92026000       0.23252870       0.95212000
    77  H          0.76257500       0.25783900       0.45511800
    78  H          0.23742500       0.75783900       0.04488200
    79  H          0.23742500       0.74216100       0.54488200
    80  H          0.76257500       0.24216100       0.95511800
    81  H          0.93995100       0.26797100       0.37174700
    82  H          0.06004900       0.76797100       0.12825300
    83  H          0.06004900       0.73202900       0.62825300
    84  H          0.93995100       0.23202900       0.87174700
    85  C          0.95206000       0.33702140       0.62702000
    86  C          0.04794000       0.83702140       0.87298000
    87  C          0.04794000       0.66297860       0.37298000
    88  C          0.95206000       0.16297860       0.12702000
    89  H         -0.00566200       0.38386400       0.66292200
    90  H          0.00566200       0.88386400       0.83707800
    91  H          0.00566200       0.61613600       0.33707800
    92  H         -0.00566200       0.11613600       0.16292200
    93  H          0.79426300       0.32858900       0.63129900
    94  H          0.20573700       0.82858900       0.86870100
    95  H          0.20573700       0.67141100       0.36870100
    96  H          0.79426300       0.17141100       0.13129900
    97  C          0.32514000       0.29332130       0.68292000
    98  C          0.67486000       0.79332130       0.81708000
    99  C          0.67486000       0.70667870       0.31708000
   100  C          0.32514000       0.20667870       0.18292000
   101  H          0.41713200       0.25515700       0.72412200
   102  H          0.58286800       0.75515700       0.77587800
   103  H          0.58286800       0.74484300       0.27587800
   104  H          0.41713200       0.24484300       0.22412200
   105  H          0.37014300       0.33965700       0.71986700
   106  H          0.62985700       0.83965700       0.78013300
   107  H          0.62985700       0.66034300       0.28013300
   108  H          0.37014300       0.16034300       0.21986700
   109  C          0.22504000       0.35223140       0.50112000
   110  C          0.77496000       0.85223140      -0.00112000
   111  C          0.77496000       0.64776860       0.49888000
   112  C          0.22504000       0.14776860       0.00112000
   113  H          0.24982000       0.35340900       0.42154200
   114  H          0.75018000       0.85340900       0.07845800
   115  H          0.75018000       0.64659100       0.57845800
   116  H          0.24982000       0.14659100       0.92154200
   117  H          0.26867400       0.39942300       0.53543900
   118  H          0.73132600       0.89942300       0.96456100
   119  H          0.73132600       0.60057700       0.46456100
   120  H          0.26867400       0.10057700       0.03543900
   121  C          0.02515000       0.20919130       0.63512000
   122  C         -0.02515000       0.70919130       0.86488000
   123  C         -0.02515000       0.79080870       0.36488000
   124  C          0.02515000       0.29080870       0.13512000
   125  H          0.86795100       0.19908700       0.63884900
   126  H          0.13204900       0.69908700       0.86115100
   127  H          0.13204900       0.80091300       0.36115100
   128  H          0.86795100       0.30091300       0.13884900
   129  H          0.11513000       0.17076300       0.67680900
   130  H          0.88487000       0.67076300       0.82319100
   131  H          0.88487000       0.82923700       0.32319100
   132  H          0.11513000       0.32923700       0.17680900
   133  C          0.29864000       0.22536150       0.50972000
   134  C          0.70136000       0.72536150      -0.00972000
   135  C          0.70136000       0.77463850       0.49028000
   136  C          0.29864000       0.27463850       0.00972000
   137  H          0.39221800       0.18705500       0.54946200
   138  H          0.60778200       0.68705500       0.95053800
   139  H          0.60778200       0.81294500       0.45053800
   140  H          0.39221800       0.31294500       0.04946200
   141  H          0.32329100       0.22602800       0.43004900
   142  H          0.67670900       0.72602800       0.06995100
   143  H          0.67670900       0.77397200       0.56995100
   144  H          0.32329100       0.27397200       0.93004900
