data_TPEPHO07
_symmetry_space_group_name_H-M    'P1'
_symmetry_Int_Tables_number       1
loop_
_symmetry_equiv_pos_site_id
_symmetry_equiv_pos_as_xyz
1 x,y,z
_cell_length_a                   15.0661
_cell_length_b                   9.0372
_cell_length_c                   11.2963
_cell_angle_alpha                90.0
_cell_angle_beta                 98.471
_cell_angle_gamma                90.0
loop_
_atom_site_label
_atom_site_type_symbol
_atom_site_fract_x
_atom_site_fract_y
_atom_site_fract_z
     1  P          0.23407300       0.13743500       0.26350400
     2  P          0.76592700       0.63743500       0.23649600
     3  P          0.76592700       0.86256500       0.73649600
     4  P          0.23407300       0.36256500       0.76350400
     5  O          0.22786800       0.08181000       0.38565900
     6  O          0.77213200       0.58181000       0.11434100
     7  O          0.77213200       0.91819000       0.61434100
     8  O          0.22786800       0.41819000       0.88565900
     9  C          0.13641000       0.23932000       0.19871000
    10  C          0.86359000       0.73932000       0.30129000
    11  C          0.86359000       0.76068000       0.80129000
    12  C          0.13641000       0.26068000       0.69871000
    13  C          0.11031000       0.36002000       0.25822000
    14  C          0.88969000       0.86002000       0.24178000
    15  C          0.88969000       0.63998000       0.74178000
    16  C          0.11031000       0.13998000       0.75822000
    17  C          0.03182000       0.43383000       0.21622000
    18  C          0.96818000       0.93383000       0.28378000
    19  C          0.96818000       0.56617000       0.78378000
    20  C          0.03182000       0.06617000       0.71622000
    21  C          0.97869000       0.39013000       0.11592000
    22  C          0.02131000       0.89013000       0.38408000
    23  C          0.02131000       0.60987000       0.88408000
    24  C          0.97869000       0.10987000       0.61592000
    25  C          0.00411000       0.27273000       0.05552000
    26  C         -0.00411000       0.77273000       0.44448000
    27  C         -0.00411000       0.72727000       0.94448000
    28  C          0.00411000       0.22727000       0.55552000
    29  C          0.08231000       0.19692000       0.09572000
    30  C          0.91769000       0.69692000       0.40428000
    31  C          0.91769000       0.80308000       0.90428000
    32  C          0.08231000       0.30308000       0.59572000
    33  C          0.32871000       0.25972000       0.26301000
    34  C          0.67129000       0.75972000       0.23699000
    35  C          0.67129000       0.74028000       0.73699000
    36  C          0.32871000       0.24028000       0.76301000
    37  C          0.33511000       0.36312000       0.17432000
    38  C          0.66489000       0.86312000       0.32568000
    39  C          0.66489000       0.63688000       0.82568000
    40  C          0.33511000       0.13688000       0.67432000
    41  C          0.41001000       0.45192000       0.18052000
    42  C          0.58999000       0.95192000       0.31948000
    43  C          0.58999000       0.54808000       0.81948000
    44  C          0.41001000       0.04808000       0.68052000
    45  C          0.47801000       0.43812000       0.27472000
    46  C          0.52199000       0.93812000       0.22528000
    47  C          0.52199000       0.56188000       0.72528000
    48  C          0.47801000       0.06188000       0.77472000
    49  C          0.47231000       0.33772000       0.36332000
    50  C          0.52769000       0.83772000       0.13668000
    51  C          0.52769000       0.66228000       0.63668000
    52  C          0.47231000       0.16228000       0.86332000
    53  C          0.39821000       0.24752000       0.35892000
    54  C          0.60179000       0.74752000       0.14108000
    55  C          0.60179000       0.75248000       0.64108000
    56  C          0.39821000       0.25248000       0.85892000
    57  C          0.24741000      -0.01072000       0.16071000
    58  C          0.75259000       0.48928000       0.33929000
    59  C          0.75259000       0.01072000       0.83929000
    60  C          0.24741000       0.51072000       0.66071000
    61  C          0.28411000       0.00872000       0.05622000
    62  C          0.71589000       0.50872000       0.44378000
    63  C          0.71589000      -0.00872000       0.94378000
    64  C          0.28411000       0.49128000       0.55622000
    65  C          0.29181000       0.88968000       0.98148000
    66  C          0.70819000       0.38968000       0.51852000
    67  C          0.70819000       0.11032000       0.01852000
    68  C          0.29181000       0.61032000       0.48148000
    69  C          0.26451000       0.75158000       0.01062000
    70  C          0.73549000       0.25158000       0.48938000
    71  C          0.73549000       0.24842000      -0.01062000
    72  C          0.26451000       0.74842000       0.51062000
    73  C          0.22741000       0.73208000       0.11252000
    74  C          0.77259000       0.23208000       0.38748000
    75  C          0.77259000       0.26792000       0.88748000
    76  C          0.22741000       0.76792000       0.61252000
    77  C          0.21881000       0.84968000       0.18752000
    78  C          0.78119000       0.34968000       0.31248000
    79  C          0.78119000       0.15032000       0.81248000
    80  C          0.21881000       0.65032000       0.68752000
    81  H          0.14777000       0.39409000       0.32428000
    82  H          0.85223000       0.89409000       0.17572000
    83  H          0.85223000       0.60591000       0.67572000
    84  H          0.14777000       0.10591000       0.82428000
    85  H          0.02587000       0.51909000       0.26008000
    86  H          0.97413000       0.01909000       0.23992000
    87  H          0.97413000       0.48091000       0.73992000
    88  H          0.02587000       0.98091000       0.76008000
    89  H          0.92313000       0.44388000       0.08978000
    90  H          0.07687000       0.94388000       0.41022000
    91  H          0.07687000       0.55612000       0.91022000
    92  H          0.92313000       0.05612000       0.58978000
    93  H          0.97033000       0.24309000       0.98022000
    94  H          0.02967000       0.74309000       0.51978000
    95  H          0.02967000       0.75691000       0.01978000
    96  H          0.97033000       0.25691000       0.48022000
    97  H          0.09777000       0.10798000       0.05578000
    98  H          0.90223000       0.60798000       0.44422000
    99  H          0.90223000       0.89202000       0.94422000
   100  H          0.09777000       0.39202000       0.55578000
   101  H          0.28727000       0.37568000       0.10898000
   102  H          0.71273000       0.87568000       0.39102000
   103  H          0.71273000       0.62432000       0.89102000
   104  H          0.28727000       0.12432000       0.60898000
   105  H          0.41597000       0.51799000       0.11838000
   106  H          0.58403000       0.01799000       0.38162000
   107  H          0.58403000       0.48201000       0.88162000
   108  H          0.41597000       0.98201000       0.61838000
   109  H          0.52477000       0.49749000       0.28238000
   110  H          0.47523000      -0.00251000       0.21762000
   111  H          0.47523000       0.50251000       0.71762000
   112  H          0.52477000       0.00251000       0.78238000
   113  H          0.51577000       0.32288000       0.42638000
   114  H          0.48423000       0.82288000       0.07362000
   115  H          0.48423000       0.67712000       0.57362000
   116  H          0.51577000       0.17712000       0.92638000
   117  H          0.39167000       0.17148000       0.41888000
   118  H          0.60833000       0.67148000       0.08112000
   119  H          0.60833000       0.82852000       0.58112000
   120  H          0.39167000       0.32852000       0.91888000
   121  H          0.30387000       0.10299000       0.03728000
   122  H          0.69613000       0.60299000       0.46272000
   123  H          0.69613000       0.89701000       0.96272000
   124  H          0.30387000       0.39701000       0.53728000
   125  H          0.31837000       0.91202000       0.91652000
   126  H          0.68163000       0.41202000       0.58348000
   127  H          0.68163000       0.08798000       0.08348000
   128  H          0.31837000       0.58798000       0.41652000
   129  H          0.26937000       0.66752000       0.96102000
   130  H          0.73063000       0.16752000       0.53898000
   131  H          0.73063000       0.33248000       0.03898000
   132  H          0.26937000       0.83248000       0.46102000
   133  H          0.20907000       0.63582000       0.13778000
   134  H          0.79093000       0.13582000       0.36222000
   135  H          0.79093000       0.36418000       0.86222000
   136  H          0.20907000       0.86418000       0.63778000
   137  H          0.19097000       0.83252000       0.25158000
   138  H          0.80903000       0.33252000       0.24842000
   139  H          0.80903000       0.16748000       0.74842000
   140  H          0.19097000       0.66748000       0.75158000
