data_TPEPHO
_symmetry_space_group_name_H-M    'P1'
_symmetry_Int_Tables_number       1
loop_
_symmetry_equiv_pos_site_id
_symmetry_equiv_pos_as_xyz
1 x,y,z
_cell_length_a                   29.1202
_cell_length_b                   9.1431
_cell_length_c                   11.2521
_cell_angle_alpha                90.0
_cell_angle_beta                 90.0
_cell_angle_gamma                90.0
loop_
_atom_site_label
_atom_site_type_symbol
_atom_site_fract_x
_atom_site_fract_y
_atom_site_fract_z
     1  C          0.12590000      -0.00770000       0.11130000
     2  C          0.37410000       0.00770000       0.61130000
     3  C          0.62590000       0.50770000       0.88870000
     4  C          0.87410000       0.49230000       0.38870000
     5  C          0.87410000       0.00770000       0.88870000
     6  C          0.62590000      -0.00770000       0.38870000
     7  C          0.37410000       0.49230000       0.11130000
     8  C          0.12590000       0.50770000       0.61130000
     9  C          0.98590000       0.38860000       0.11680000
    10  C          0.51410000       0.61140000       0.61680000
    11  C          0.48590000       0.11140000       0.88320000
    12  C          0.01410000       0.88860000       0.38320000
    13  C          0.01410000       0.61140000       0.88320000
    14  C          0.48590000       0.38860000       0.38320000
    15  C          0.51410000       0.88860000       0.11680000
    16  C          0.98590000       0.11140000       0.61680000
    17  C          0.01400000       0.43020000       0.20900000
    18  C          0.48600000       0.56980000       0.70900000
    19  C          0.51400000       0.06980000       0.79100000
    20  C          0.98600000       0.93020000       0.29100000
    21  C          0.98600000       0.56980000       0.79100000
    22  C          0.51400000       0.43020000       0.29100000
    23  C          0.48600000       0.93020000       0.20900000
    24  C          0.01400000       0.06980000       0.70900000
    25  C          0.05640000       0.35870000       0.23730000
    26  C          0.44360000       0.64130000       0.73730000
    27  C          0.55640000       0.14130000       0.76270000
    28  C          0.94360000       0.85870000       0.26270000
    29  C          0.94360000       0.64130000       0.76270000
    30  C          0.55640000       0.35870000       0.26270000
    31  C          0.44360000       0.85870000       0.23730000
    32  C          0.05640000       0.14130000       0.73730000
    33  C          0.16580000       0.25500000       0.19430000
    34  C          0.33420000       0.74500000       0.69430000
    35  C          0.66580000       0.24500000       0.80570000
    36  C          0.83420000       0.75500000       0.30570000
    37  C          0.83420000       0.74500000       0.80570000
    38  C          0.66580000       0.25500000       0.30570000
    39  C          0.33420000       0.75500000       0.19430000
    40  C          0.16580000       0.24500000       0.69430000
    41  C          0.16840000       0.35830000       0.10160000
    42  C          0.33160000       0.64170000       0.60160000
    43  C          0.66840000       0.14170000       0.89840000
    44  C          0.83160000       0.85830000       0.39840000
    45  C          0.83160000       0.64170000       0.89840000
    46  C          0.66840000       0.35830000       0.39840000
    47  C          0.33160000       0.85830000       0.10160000
    48  C          0.16840000       0.14170000       0.60160000
    49  C          0.20910000       0.44420000       0.08020000
    50  C          0.29090000       0.55580000       0.58020000
    51  C          0.70910000       0.05580000       0.91980000
    52  C          0.79090000       0.94420000       0.41980000
    53  C          0.79090000       0.55580000       0.91980000
    54  C          0.70910000       0.44420000       0.41980000
    55  C          0.29090000       0.94420000       0.08020000
    56  C          0.20910000       0.05580000       0.58020000
    57  C          0.24420000       0.42730000       0.15920000
    58  C          0.25580000       0.57270000       0.65920000
    59  C          0.74420000       0.07270000       0.84080000
    60  C          0.75580000       0.92730000       0.34080000
    61  C          0.75580000       0.57270000       0.84080000
    62  C          0.74420000       0.42730000       0.34080000
    63  C          0.25580000       0.92730000       0.15920000
    64  C          0.24420000       0.07270000       0.65920000
    65  C          0.24330000       0.33190000       0.25400000
    66  C          0.25670000       0.66810000       0.75400000
    67  C          0.74330000       0.16810000       0.74600000
    68  C          0.75670000       0.83190000       0.24600000
    69  C          0.75670000       0.66810000       0.74600000
    70  C          0.74330000       0.33190000       0.24600000
    71  C          0.25670000       0.83190000       0.25400000
    72  C          0.24330000       0.16810000       0.75400000
    73  C          0.20360000       0.24730000       0.27020000
    74  C          0.29640000       0.75270000       0.77020000
    75  C          0.70360000       0.25270000       0.72980000
    76  C          0.79640000       0.74730000       0.22980000
    77  C          0.79640000       0.75270000       0.72980000
    78  C          0.70360000       0.24730000       0.22980000
    79  C          0.29640000       0.74730000       0.27020000
    80  C          0.20360000       0.25270000       0.77020000
    81  C          0.14570000       0.01020000      -0.00210000
    82  C          0.35430000      -0.01020000       0.49790000
    83  C          0.64570000       0.48980000       0.00210000
    84  C          0.85430000       0.51020000       0.50210000
    85  C          0.85430000      -0.01020000       0.00210000
    86  C          0.64570000       0.01020000       0.50210000
    87  C          0.35430000       0.51020000      -0.00210000
    88  C          0.14570000       0.48980000       0.49790000
    89  C          0.15160000       0.89380000       0.91600000
    90  C          0.34840000       0.10620000       0.41600000
    91  C          0.65160000       0.60620000       0.08400000
    92  C          0.84840000       0.39380000       0.58400000
    93  C          0.84840000       0.10620000       0.08400000
    94  C          0.65160000       0.89380000       0.58400000
    95  C          0.34840000       0.39380000       0.91600000
    96  C          0.15160000       0.60620000       0.41600000
    97  C          0.13710000       0.75420000       0.95680000
    98  C          0.36290000       0.24580000       0.45680000
    99  C          0.63710000       0.74580000       0.04320000
   100  C          0.86290000       0.25420000       0.54320000
   101  C          0.86290000       0.24580000       0.04320000
   102  C          0.63710000       0.75420000       0.54320000
   103  C          0.36290000       0.25420000       0.95680000
   104  C          0.13710000       0.74580000       0.45680000
   105  C          0.11770000       0.73530000       0.06730000
   106  C          0.38230000       0.26470000       0.56730000
   107  C          0.61770000       0.76470000       0.93270000
   108  C          0.88230000       0.23530000       0.43270000
   109  C          0.88230000       0.26470000       0.93270000
   110  C          0.61770000       0.73530000       0.43270000
   111  C          0.38230000       0.23530000       0.06730000
   112  C          0.11770000       0.76470000       0.56730000
   113  C          0.11100000       0.85250000       0.14780000
   114  C          0.38900000       0.14750000       0.64780000
   115  C          0.61100000       0.64750000       0.85220000
   116  C          0.88900000       0.35250000       0.35220000
   117  C          0.88900000       0.14750000       0.85220000
   118  C          0.61100000       0.85250000       0.35220000
   119  C          0.38900000       0.35250000       0.14780000
   120  C          0.11100000       0.64750000       0.64780000
   121  C          0.06890000       0.23550000       0.16900000
   122  C          0.43110000       0.76450000       0.66900000
   123  C          0.56890000       0.26450000       0.83100000
   124  C          0.93110000       0.73550000       0.33100000
   125  C          0.93110000       0.76450000       0.83100000
   126  C          0.56890000       0.23550000       0.33100000
   127  C          0.43110000       0.73550000       0.16900000
   128  C          0.06890000       0.26450000       0.66900000
   129  C          0.04100000       0.19400000       0.07720000
   130  C          0.45900000       0.80600000       0.57720000
   131  C          0.54100000       0.30600000       0.92280000
   132  C          0.95900000       0.69400000       0.42280000
   133  C          0.95900000       0.80600000       0.92280000
   134  C          0.54100000       0.19400000       0.42280000
   135  C          0.45900000       0.69400000       0.07720000
   136  C          0.04100000       0.30600000       0.57720000
   137  C         -0.00140000       0.26470000       0.05250000
   138  C          0.50140000       0.73530000       0.55250000
   139  C          0.49860000       0.23530000       0.94750000
   140  C          0.00140000       0.76470000       0.44750000
   141  C          0.00140000       0.73530000       0.94750000
   142  C          0.49860000       0.26470000       0.44750000
   143  C          0.50140000       0.76470000       0.05250000
   144  C         -0.00140000       0.23530000       0.55250000
   145  H          0.14330000       0.12660000       0.95000000
   146  H          0.35670000       0.87340000       0.45000000
   147  H          0.64330000       0.37340000       0.05000000
   148  H          0.85670000       0.62660000       0.55000000
   149  H          0.85670000       0.87340000       0.05000000
   150  H          0.64330000       0.12660000       0.55000000
   151  H          0.35670000       0.62660000       0.95000000
   152  H          0.14330000       0.37340000       0.45000000
   153  H          0.08660000       0.38660000       0.30330000
   154  H          0.41340000       0.61340000       0.80330000
   155  H          0.58660000       0.11340000       0.69670000
   156  H          0.91340000       0.88660000       0.19670000
   157  H          0.91340000       0.61340000       0.69670000
   158  H          0.58660000       0.38660000       0.19670000
   159  H          0.41340000       0.88660000       0.30330000
   160  H          0.08660000       0.11340000       0.80330000
   161  H          0.14670000       0.36330000       0.01330000
   162  H          0.35330000       0.63670000       0.51330000
   163  H          0.64670000       0.13670000       0.98670000
   164  H          0.85330000       0.86330000       0.48670000
   165  H          0.85330000       0.63670000       0.98670000
   166  H          0.64670000       0.36330000       0.48670000
   167  H          0.35330000       0.86330000       0.01330000
   168  H          0.14670000       0.13670000       0.51330000
   169  H          0.20000000       0.52000000       0.01000000
   170  H          0.30000000       0.48000000       0.51000000
   171  H          0.70000000       0.98000000      -0.01000000
   172  H          0.80000000       0.02000000       0.49000000
   173  H          0.80000000       0.48000000      -0.01000000
   174  H          0.70000000       0.52000000       0.49000000
   175  H          0.30000000       0.02000000       0.01000000
   176  H          0.20000000       0.98000000       0.51000000
   177  H          0.27500000       0.50330000       0.15330000
   178  H          0.22500000       0.49670000       0.65330000
   179  H          0.77500000      -0.00330000       0.84670000
   180  H          0.72500000       0.00330000       0.34670000
   181  H          0.72500000       0.49670000       0.84670000
   182  H          0.77500000       0.50330000       0.34670000
   183  H          0.22500000       0.00330000       0.15330000
   184  H          0.27500000      -0.00330000       0.65330000
   185  H          0.27000000       0.30330000       0.33000000
   186  H          0.23000000       0.69670000       0.83000000
   187  H          0.77000000       0.19670000       0.67000000
   188  H          0.73000000       0.80330000       0.17000000
   189  H          0.73000000       0.69670000       0.67000000
   190  H          0.77000000       0.30330000       0.17000000
   191  H          0.23000000       0.80330000       0.33000000
   192  H          0.27000000       0.19670000       0.83000000
   193  H          0.20660000       0.17000000       0.36000000
   194  H          0.29340000       0.83000000       0.86000000
   195  H          0.70660000       0.33000000       0.64000000
   196  H          0.79340000       0.67000000       0.14000000
   197  H          0.79340000       0.83000000       0.64000000
   198  H          0.70660000       0.17000000       0.14000000
   199  H          0.29340000       0.67000000       0.36000000
   200  H          0.20660000       0.33000000       0.86000000
   201  H          0.17000000       0.90000000       0.81670000
   202  H          0.33000000       0.10000000       0.31670000
   203  H          0.67000000       0.60000000       0.18330000
   204  H          0.83000000       0.40000000       0.68330000
   205  H          0.83000000       0.10000000       0.18330000
   206  H          0.67000000       0.90000000       0.68330000
   207  H          0.33000000       0.40000000       0.81670000
   208  H          0.17000000       0.60000000       0.31670000
   209  H          0.14160000       0.62670000       0.92670000
   210  H          0.35840000       0.37330000       0.42670000
   211  H          0.64160000       0.87330000       0.07330000
   212  H          0.85840000       0.12670000       0.57330000
   213  H          0.85840000       0.37330000       0.07330000
   214  H          0.64160000       0.62670000       0.57330000
   215  H          0.35840000       0.12670000       0.92670000
   216  H          0.14160000       0.87330000       0.42670000
   217  H          0.11000000       0.61000000       0.09330000
   218  H          0.39000000       0.39000000       0.59330000
   219  H          0.61000000       0.89000000       0.90670000
   220  H          0.89000000       0.11000000       0.40670000
   221  H          0.89000000       0.39000000       0.90670000
   222  H          0.61000000       0.61000000       0.40670000
   223  H          0.39000000       0.11000000       0.09330000
   224  H          0.11000000       0.89000000       0.59330000
   225  H          0.09160000       0.85000000       0.23660000
   226  H          0.40840000       0.15000000       0.73660000
   227  H          0.59160000       0.65000000       0.76340000
   228  H          0.90840000       0.35000000       0.26340000
   229  H          0.90840000       0.15000000       0.76340000
   230  H          0.59160000       0.85000000       0.26340000
   231  H          0.40840000       0.35000000       0.23660000
   232  H          0.09160000       0.65000000       0.73660000
   233  H          0.05000000       0.08660000       0.03000000
   234  H          0.45000000       0.91340000       0.53000000
   235  H          0.55000000       0.41340000       0.97000000
   236  H          0.95000000       0.58660000       0.47000000
   237  H          0.95000000       0.91340000       0.97000000
   238  H          0.55000000       0.08660000       0.47000000
   239  H          0.45000000       0.58660000       0.03000000
   240  H          0.05000000       0.41340000       0.53000000
   241  H          0.97000000       0.23000000       0.98340000
   242  H          0.53000000       0.77000000       0.48340000
   243  H          0.47000000       0.27000000       0.01660000
   244  H          0.03000000       0.73000000       0.51660000
   245  H          0.03000000       0.77000000       0.01660000
   246  H          0.47000000       0.23000000       0.51660000
   247  H          0.53000000       0.73000000       0.98340000
   248  H          0.97000000       0.27000000       0.48340000
   249  H          0.95500000       0.41660000       0.07660000
   250  H          0.54500000       0.58340000       0.57660000
   251  H          0.45500000       0.08340000       0.92340000
   252  H          0.04500000       0.91660000       0.42340000
   253  H          0.04500000       0.58340000       0.92340000
   254  H          0.45500000       0.41660000       0.42340000
   255  H          0.54500000       0.91660000       0.07660000
   256  H          0.95500000       0.08340000       0.57660000
   257  H          0.00830000       0.53330000       0.25330000
   258  H          0.49170000       0.46670000       0.75330000
   259  H          0.50830000       0.96670000       0.74670000
   260  H          0.99170000       0.03330000       0.24670000
   261  H          0.99170000       0.46670000       0.74670000
   262  H          0.50830000       0.53330000       0.24670000
   263  H          0.49170000       0.03330000       0.25330000
   264  H          0.00830000       0.96670000       0.75330000
   265  O          0.11710000       0.08390000       0.33530000
   266  O          0.38290000       0.91610000       0.83530000
   267  O          0.61710000       0.41610000       0.66470000
   268  O          0.88290000       0.58390000       0.16470000
   269  O          0.88290000       0.91610000       0.66470000
   270  O          0.61710000       0.08390000       0.16470000
   271  O          0.38290000       0.58390000       0.33530000
   272  O          0.11710000       0.41610000       0.83530000
   273  P          0.11850000       0.13850000       0.21320000
   274  P          0.38150000       0.86150000       0.71320000
   275  P          0.61850000       0.36150000       0.78680000
   276  P          0.88150000       0.63850000       0.28680000
   277  P          0.88150000       0.86150000       0.78680000
   278  P          0.61850000       0.13850000       0.28680000
   279  P          0.38150000       0.63850000       0.21320000
   280  P          0.11850000       0.36150000       0.71320000
