data_TPEPHO12
_symmetry_space_group_name_H-M    'P1'
_symmetry_Int_Tables_number       1
loop_
_symmetry_equiv_pos_site_id
_symmetry_equiv_pos_as_xyz
1 x,y,z
_cell_length_a                   10.2071
_cell_length_b                   10.0821
_cell_length_c                   14.5911
_cell_angle_alpha                90.0
_cell_angle_beta                 96.282
_cell_angle_gamma                90.0
loop_
_atom_site_label
_atom_site_type_symbol
_atom_site_fract_x
_atom_site_fract_y
_atom_site_fract_z
     1  P          0.54431110       0.18943130       0.70016800
     2  P          0.95568890       0.68943130       0.79983200
     3  P          0.45568890       0.81056870       0.29983200
     4  P          0.04431110       0.31056870       0.20016800
     5  O          0.43753000       0.09284000       0.67372000
     6  O          0.06247000       0.59284000       0.82628000
     7  O          0.56247000       0.90716000       0.32628000
     8  O          0.93753000       0.40716000       0.17372000
     9  C          0.48794000       0.35905000       0.68973000
    10  C          0.01206000       0.85905000       0.81027000
    11  C          0.51206000       0.64095000       0.31027000
    12  C         -0.01206000       0.14095000       0.18973000
    13  C          0.38544000       0.39526000       0.73923000
    14  C          0.11456000       0.89526000       0.76077000
    15  C          0.61456000       0.60474000       0.26077000
    16  C          0.88544000       0.10474000       0.23923000
    17  C          0.33315000       0.52147000       0.73183000
    18  C          0.16685000       0.02147000       0.76817000
    19  C          0.66685000       0.47853000       0.26817000
    20  C          0.83315000       0.97853000       0.23183000
    21  C          0.38445000       0.61216000       0.67514000
    22  C          0.11555000       0.11216000       0.82486000
    23  C          0.61555000       0.38784000       0.32486000
    24  C          0.88445000       0.88784000       0.17514000
    25  C          0.48525000       0.57796000       0.62544000
    26  C          0.01475000       0.07796000       0.87456000
    27  C          0.51475000       0.42204000       0.37456000
    28  C         -0.01475000       0.92204000       0.12544000
    29  C          0.53824000       0.45185000       0.63263000
    30  C          0.96176000       0.95185000       0.86737000
    31  C          0.46176000       0.54815000       0.36737000
    32  C          0.03824000       0.04815000       0.13263000
    33  C          0.61234000       0.17474000       0.81833000
    34  C          0.88766000       0.67474000       0.68167000
    35  C          0.38766000       0.82526000       0.18167000
    36  C          0.11234000       0.32526000       0.31833000
    37  C          0.59634000       0.05335000       0.86233000
    38  C          0.90366000       0.55335000       0.63767000
    39  C          0.40366000       0.94665000       0.13767000
    40  C          0.09634000       0.44665000       0.36233000
    41  C          0.64505000       0.03686000       0.95344000
    42  C          0.85495000       0.53686000       0.54656000
    43  C          0.35495000       0.96314000       0.04656000
    44  C          0.14505000       0.46314000       0.45344000
    45  C          0.70715000       0.13776000       0.00174000
    46  C          0.79285000       0.63776000       0.49826000
    47  C          0.29285000       0.86224000      -0.00174000
    48  C          0.20715000       0.36224000       0.50174000
    49  C          0.72465000       0.25846000       0.95954000
    50  C          0.77535000       0.75846000       0.54046000
    51  C          0.27535000       0.74154000       0.04046000
    52  C          0.22465000       0.24154000       0.45954000
    53  C          0.67684000       0.27635000       0.86853000
    54  C          0.82316000       0.77635000       0.63147000
    55  C          0.32316000       0.72365000       0.13147000
    56  C          0.17684000       0.22365000       0.36853000
    57  C          0.67694000       0.17204000       0.62893000
    58  C          0.82306000       0.67204000       0.87107000
    59  C          0.32306000       0.82796000       0.37107000
    60  C          0.17694000       0.32796000       0.12893000
    61  C          0.64495000       0.12965000       0.53983000
    62  C          0.85505000       0.62965000       0.96017000
    63  C          0.35505000       0.87035000       0.46017000
    64  C          0.14495000       0.37035000       0.03983000
    65  C          0.74076000       0.11165000       0.48093000
    66  C          0.75924000       0.61165000       0.01907000
    67  C          0.25924000       0.88835000       0.51907000
    68  C          0.24076000       0.38835000       0.98093000
    69  C          0.86995000       0.13685000       0.51174000
    70  C          0.63005000       0.63685000       0.98826000
    71  C          0.13005000       0.86315000       0.48826000
    72  C          0.36995000       0.36315000       0.01174000
    73  C          0.90355000       0.17686000       0.60004000
    74  C          0.59645000       0.67686000       0.89996000
    75  C          0.09645000       0.82314000       0.39996000
    76  C          0.40355000       0.32314000       0.10004000
    77  C          0.80785000       0.19535000       0.65933000
    78  C          0.69215000       0.69535000       0.84067000
    79  C          0.19215000       0.80465000       0.34067000
    80  C          0.30785000       0.30465000       0.15933000
    81  H          0.35150000       0.33380000       0.77790000
    82  H          0.14850000       0.83380000       0.72210000
    83  H          0.64850000       0.66620000       0.22210000
    84  H          0.85150000       0.16620000       0.27790000
    85  H          0.26370000       0.54490000       0.76480000
    86  H          0.23630000       0.04490000       0.73520000
    87  H          0.73630000       0.45510000       0.23520000
    88  H          0.76370000       0.95510000       0.26480000
    89  H          0.35020000       0.69760000       0.67060000
    90  H          0.14980000       0.19760000       0.82940000
    91  H          0.64980000       0.30240000       0.32940000
    92  H          0.85020000       0.80240000       0.17060000
    93  H          0.51820000       0.63970000       0.58660000
    94  H          0.98180000       0.13970000       0.91340000
    95  H          0.48180000       0.36030000       0.41340000
    96  H          0.01820000       0.86030000       0.08660000
    97  H          0.60760000       0.42920000       0.59930000
    98  H          0.89240000       0.92920000       0.90070000
    99  H          0.39240000       0.57080000       0.40070000
   100  H          0.10760000       0.07080000       0.09930000
   101  H          0.55280000       0.98380000       0.83000000
   102  H          0.94720000       0.48380000       0.67000000
   103  H          0.44720000       0.01620000       0.17000000
   104  H          0.05280000       0.51620000       0.33000000
   105  H          0.63510000       0.95550000       0.98200000
   106  H          0.86490000       0.45550000       0.51800000
   107  H          0.36490000       0.04450000       0.01800000
   108  H          0.13510000       0.54450000       0.48200000
   109  H          0.73820000       0.12580000       0.06350000
   110  H          0.76180000       0.62580000       0.43650000
   111  H          0.26180000       0.87420000       0.93650000
   112  H          0.23820000       0.37420000       0.56350000
   113  H          0.76830000       0.32720000      -0.00750000
   114  H          0.73170000       0.82720000       0.50750000
   115  H          0.23170000       0.67280000       0.00750000
   116  H          0.26830000       0.17280000       0.49250000
   117  H          0.68810000       0.35760000       0.84030000
   118  H          0.81190000       0.85760000       0.65970000
   119  H          0.31190000       0.64240000       0.15970000
   120  H          0.18810000       0.14240000       0.34030000
   121  H          0.55720000       0.11270000       0.51870000
   122  H          0.94280000       0.61270000       0.98130000
   123  H          0.44280000       0.88730000       0.48130000
   124  H          0.05720000       0.38730000       0.01870000
   125  H          0.71760000       0.08260000       0.42080000
   126  H          0.78240000       0.58260000       0.07920000
   127  H          0.28240000       0.91740000       0.57920000
   128  H          0.21760000       0.41740000       0.92080000
   129  H          0.93470000       0.12650000       0.47220000
   130  H          0.56530000       0.62650000       0.02780000
   131  H          0.06530000       0.87350000       0.52780000
   132  H          0.43470000       0.37350000       0.97220000
   133  H         -0.00840000       0.19200000       0.62090000
   134  H          0.50840000       0.69200000       0.87910000
   135  H          0.00840000       0.80800000       0.37910000
   136  H          0.49160000       0.30800000       0.12090000
   137  H          0.83170000       0.22330000       0.71950000
   138  H          0.66830000       0.72330000       0.78050000
   139  H          0.16830000       0.77670000       0.28050000
   140  H          0.33170000       0.27670000       0.21950000
