data_TPEPHO08
_symmetry_space_group_name_H-M    'P1'
_symmetry_Int_Tables_number       1
loop_
_symmetry_equiv_pos_site_id
_symmetry_equiv_pos_as_xyz
1 x,y,z
_cell_length_a                   29.08515
_cell_length_b                   9.1494
_cell_length_c                   11.2665
_cell_angle_alpha                90.0
_cell_angle_beta                 90.0
_cell_angle_gamma                90.0
loop_
_atom_site_label
_atom_site_type_symbol
_atom_site_fract_x
_atom_site_fract_y
_atom_site_fract_z
     1  P          0.11874500       0.13767140       0.21413120
     2  P          0.38125500       0.86232860       0.71413120
     3  P          0.61874500       0.36232860       0.78586880
     4  P          0.88125500       0.63767140       0.28586880
     5  P          0.88125500       0.86232860       0.78586880
     6  P          0.61874500       0.13767140       0.28586880
     7  P          0.38125500       0.63767140       0.21413120
     8  P          0.11874500       0.36232860       0.71413120
     9  O          0.11631000       0.08253000       0.33813000
    10  O          0.38369000       0.91747000       0.83813000
    11  O          0.61631000       0.41747000       0.66187000
    12  O          0.88369000       0.58253000       0.16187000
    13  O          0.88369000       0.91747000       0.66187000
    14  O          0.61631000       0.08253000       0.16187000
    15  O          0.38369000       0.58253000       0.33813000
    16  O          0.11631000       0.41747000       0.83813000
    17  C          0.12622000      -0.00895000       0.10875000
    18  C          0.37378000       0.00895000       0.60875000
    19  C          0.62622000       0.50895000       0.89125000
    20  C          0.87378000       0.49105000       0.39125000
    21  C          0.87378000       0.00895000       0.89125000
    22  C          0.62622000      -0.00895000       0.39125000
    23  C          0.37378000       0.49105000       0.10875000
    24  C          0.12622000       0.50895000       0.60875000
    25  C          0.14452000       0.00888000      -0.00276000
    26  C          0.35548000      -0.00888000       0.49724000
    27  C          0.64452000       0.49112000       0.00276000
    28  C          0.85548000       0.50888000       0.50276000
    29  C          0.85548000      -0.00888000       0.00276000
    30  C          0.64452000       0.00888000       0.50276000
    31  C          0.35548000       0.50888000      -0.00276000
    32  C          0.14452000       0.49112000       0.49724000
    33  C          0.15003000       0.89062000       0.92374000
    34  C          0.34997000       0.10938000       0.42374000
    35  C          0.65003000       0.60938000       0.07626000
    36  C          0.84997000       0.39062000       0.57626000
    37  C          0.84997000       0.10938000       0.07626000
    38  C          0.65003000       0.89062000       0.57626000
    39  C          0.34997000       0.39062000       0.92374000
    40  C          0.15003000       0.60938000       0.42374000
    41  C          0.13742000       0.75262000       0.95903000
    42  C          0.36258000       0.24738000       0.45903000
    43  C          0.63742000       0.74738000       0.04097000
    44  C          0.86258000       0.25262000       0.54097000
    45  C          0.86258000       0.24738000       0.04097000
    46  C          0.63742000       0.75262000       0.54097000
    47  C          0.36258000       0.25262000       0.95903000
    48  C          0.13742000       0.74738000       0.45903000
    49  C          0.11873000       0.73473000       0.06746000
    50  C          0.38127000       0.26527000       0.56746000
    51  C          0.61873000       0.76527000       0.93254000
    52  C          0.88127000       0.23473000       0.43254000
    53  C          0.88127000       0.26527000       0.93254000
    54  C          0.61873000       0.73473000       0.43254000
    55  C          0.38127000       0.23473000       0.06746000
    56  C          0.11873000       0.76527000       0.56746000
    57  C          0.11292000       0.85104000       0.14345000
    58  C          0.38708000       0.14896000       0.64345000
    59  C          0.61292000       0.64896000       0.85655000
    60  C          0.88708000       0.35104000       0.35655000
    61  C          0.88708000       0.14896000       0.85655000
    62  C          0.61292000       0.85104000       0.35655000
    63  C          0.38708000       0.35104000       0.14345000
    64  C          0.11292000       0.64896000       0.64345000
    65  C          0.06802000       0.23565000       0.16904000
    66  C          0.43198000       0.76435000       0.66904000
    67  C          0.56802000       0.26435000       0.83096000
    68  C          0.93198000       0.73565000       0.33096000
    69  C          0.93198000       0.76435000       0.83096000
    70  C          0.56802000       0.23565000       0.33096000
    71  C          0.43198000       0.73565000       0.16904000
    72  C          0.06802000       0.26435000       0.66904000
    73  C          0.04022000       0.19417000       0.07776000
    74  C          0.45978000       0.80583000       0.57776000
    75  C          0.54022000       0.30583000       0.92224000
    76  C          0.95978000       0.69417000       0.42224000
    77  C          0.95978000       0.80583000       0.92224000
    78  C          0.54022000       0.19417000       0.42224000
    79  C          0.45978000       0.69417000       0.07776000
    80  C          0.04022000       0.30583000       0.57776000
    81  C          0.02000000       0.26931000       0.05317000
    82  C          0.48000000       0.73069000       0.55317000
    83  C          0.52000000       0.23069000       0.94683000
    84  C          0.98000000       0.76931000       0.44683000
    85  C          0.98000000       0.73069000       0.94683000
    86  C          0.52000000       0.26931000       0.44683000
    87  C          0.48000000       0.76931000       0.05317000
    88  C          0.02000000       0.23069000       0.55317000
    89  C          0.98778000       0.38879000       0.11908000
    90  C          0.51222000       0.61121000       0.61908000
    91  C          0.48778000       0.11121000       0.88092000
    92  C          0.01222000       0.88879000       0.38092000
    93  C          0.01222000       0.61121000       0.88092000
    94  C          0.48778000       0.38879000       0.38092000
    95  C          0.51222000       0.88879000       0.11908000
    96  C          0.98778000       0.11121000       0.61908000
    97  C          0.01513000       0.43328000       0.20788000
    98  C          0.48487000       0.56672000       0.70788000
    99  C          0.51513000       0.06672000       0.79212000
   100  C          0.98487000       0.93328000       0.29212000
   101  C          0.98487000       0.56672000       0.79212000
   102  C          0.51513000       0.43328000       0.29212000
   103  C          0.48487000       0.93328000       0.20788000
   104  C          0.01513000       0.06672000       0.70788000
   105  C          0.05562000       0.35869000       0.23177000
   106  C          0.44438000       0.64131000       0.73177000
   107  C          0.55562000       0.14131000       0.76823000
   108  C          0.94438000       0.85869000       0.26823000
   109  C          0.94438000       0.64131000       0.76823000
   110  C          0.55562000       0.35869000       0.26823000
   111  C          0.44438000       0.85869000       0.23177000
   112  C          0.05562000       0.14131000       0.73177000
   113  C          0.16622000       0.26025000       0.19274000
   114  C          0.33378000       0.73975000       0.69274000
   115  C          0.66622000       0.23975000       0.80726000
   116  C          0.83378000       0.76025000       0.30726000
   117  C          0.83378000       0.73975000       0.80726000
   118  C          0.66622000       0.26025000       0.30726000
   119  C          0.33378000       0.76025000       0.19274000
   120  C          0.16622000       0.23975000       0.69274000
   121  C          0.16912000       0.35787000       0.09805000
   122  C          0.33088000       0.64213000       0.59805000
   123  C          0.66912000       0.14213000       0.90195000
   124  C          0.83088000       0.85787000       0.40195000
   125  C          0.83088000       0.64213000       0.90195000
   126  C          0.66912000       0.35787000       0.40195000
   127  C          0.33088000       0.85787000       0.09805000
   128  C          0.16912000       0.14213000       0.59805000
   129  C          0.20793000       0.44137000       0.08297000
   130  C          0.29207000       0.55863000       0.58297000
   131  C          0.70793000       0.05863000       0.91703000
   132  C          0.79207000       0.94137000       0.41703000
   133  C          0.79207000       0.55863000       0.91703000
   134  C          0.70793000       0.44137000       0.41703000
   135  C          0.29207000       0.94137000       0.08297000
   136  C          0.20793000       0.05863000       0.58297000
   137  C          0.24403000       0.42749000       0.15869000
   138  C          0.25597000       0.57251000       0.65869000
   139  C          0.74403000       0.07251000       0.84131000
   140  C          0.75597000       0.92749000       0.34131000
   141  C          0.75597000       0.57251000       0.84131000
   142  C          0.74403000       0.42749000       0.34131000
   143  C          0.25597000       0.92749000       0.15869000
   144  C          0.24403000       0.07251000       0.65869000
   145  C          0.24182000       0.33421000       0.25147000
   146  C          0.25818000       0.66579000       0.75147000
   147  C          0.74182000       0.16579000       0.74853000
   148  C          0.75818000       0.83421000       0.24853000
   149  C          0.75818000       0.66579000       0.74853000
   150  C          0.74182000       0.33421000       0.24853000
   151  C          0.25818000       0.83421000       0.25147000
   152  C          0.24182000       0.16579000       0.75147000
   153  C          0.20292000       0.24757000       0.26976000
   154  C          0.29708000       0.75243000       0.76976000
   155  C          0.70292000       0.25243000       0.73024000
   156  C          0.79708000       0.74757000       0.23024000
   157  C          0.79708000       0.75243000       0.73024000
   158  C          0.70292000       0.24757000       0.23024000
   159  C          0.29708000       0.74757000       0.26976000
   160  C          0.20292000       0.25243000       0.76976000
   161  H          0.14901900       0.10345600       0.97635200
   162  H          0.35098100       0.89654400       0.47635200
   163  H          0.64901900       0.39654400       0.02364800
   164  H          0.85098100       0.60345600       0.52364800
   165  H          0.85098100       0.89654400       0.02364800
   166  H          0.64901900       0.10345600       0.52364800
   167  H          0.35098100       0.60345600       0.97635200
   168  H          0.14901900       0.39654400       0.47635200
   169  H          0.16011700       0.90284400       0.85165900
   170  H          0.33988300       0.09715600       0.35165900
   171  H          0.66011700       0.59715600       0.14834100
   172  H          0.83988300       0.40284400       0.64834100
   173  H          0.83988300       0.09715600       0.14834100
   174  H          0.66011700       0.90284400       0.64834100
   175  H          0.33988300       0.40284400       0.85165900
   176  H          0.16011700       0.59715600       0.35165900
   177  H          0.13811800       0.65113400       0.90135100
   178  H          0.36188200       0.34886600       0.40135100
   179  H          0.63811800       0.84886600       0.09864900
   180  H          0.86188200       0.15113400       0.59864900
   181  H          0.86188200       0.34886600       0.09864900
   182  H          0.63811800       0.65113400       0.59864900
   183  H          0.36188200       0.15113400       0.90135100
   184  H          0.13811800       0.84886600       0.40135100
   185  H          0.10981800       0.64394500       0.09284600
   186  H          0.39018200       0.35605500       0.59284600
   187  H          0.60981800       0.85605500       0.90715400
   188  H          0.89018200       0.14394500       0.40715400
   189  H          0.89018200       0.35605500       0.90715400
   190  H          0.60981800       0.64394500       0.40715400
   191  H          0.39018200       0.14394500       0.09284600
   192  H          0.10981800       0.85605500       0.59284600
   193  H          0.09751300       0.83415300       0.22003700
   194  H          0.40248700       0.16584700       0.72003700
   195  H          0.59751300       0.66584700       0.77996300
   196  H          0.90248700       0.33415300       0.27996300
   197  H          0.90248700       0.16584700       0.77996300
   198  H          0.59751300       0.83415300       0.27996300
   199  H          0.40248700       0.33415300       0.22003700
   200  H          0.09751300       0.66584700       0.72003700
   201  H          0.04892000       0.11495300       0.02974600
   202  H          0.45108000       0.88504700       0.52974600
   203  H          0.54892000       0.38504700       0.97025400
   204  H          0.95108000       0.61495300       0.47025400
   205  H          0.95108000       0.88504700       0.97025400
   206  H          0.54892000       0.11495300       0.47025400
   207  H          0.45108000       0.61495300       0.02974600
   208  H          0.04892000       0.38504700       0.52974600
   209  H          0.98428000       0.24196600       0.98154900
   210  H          0.51572000       0.75803400       0.48154900
   211  H          0.48428000       0.25803400       0.01845100
   212  H          0.01572000       0.74196600       0.51845100
   213  H          0.01572000       0.75803400       0.01845100
   214  H          0.48428000       0.24196600       0.51845100
   215  H          0.51572000       0.74196600       0.98154900
   216  H          0.98428000       0.25803400       0.48154900
   217  H          0.95577800       0.43906600       0.08435400
   218  H          0.54422200       0.56093400       0.58435400
   219  H          0.45577800       0.06093400       0.91564600
   220  H          0.04422200       0.93906600       0.41564600
   221  H          0.04422200       0.56093400       0.91564600
   222  H          0.45577800       0.43906600       0.41564600
   223  H          0.54422200       0.93906600       0.08435400
   224  H          0.95577800       0.06093400       0.58435400
   225  H          0.01322300       0.53677300       0.26445900
   226  H          0.48677700       0.46322700       0.76445900
   227  H          0.51322300       0.96322700       0.73554100
   228  H          0.98677700       0.03677300       0.23554100
   229  H          0.98677700       0.46322700       0.73554100
   230  H          0.51322300       0.53677300       0.23554100
   231  H          0.48677700       0.03677300       0.26445900
   232  H          0.01322300       0.96322700       0.76445900
   233  H          0.07441700       0.38055500       0.29794300
   234  H          0.42558300       0.61944500       0.79794300
   235  H          0.57441700       0.11944500       0.70205700
   236  H          0.92558300       0.88055500       0.20205700
   237  H          0.92558300       0.61944500       0.70205700
   238  H          0.57441700       0.38055500       0.20205700
   239  H          0.42558300       0.88055500       0.29794300
   240  H          0.07441700       0.11944500       0.79794300
   241  H          0.14051500       0.37474800       0.04803800
   242  H          0.35948500       0.62525200       0.54803800
   243  H          0.64051500       0.12525200       0.95196200
   244  H          0.85948500       0.87474800       0.45196200
   245  H          0.85948500       0.62525200       0.95196200
   246  H          0.64051500       0.37474800       0.45196200
   247  H          0.35948500       0.87474800       0.04803800
   248  H          0.14051500       0.12525200       0.54803800
   249  H          0.21492100       0.51165500       0.01404700
   250  H          0.28507900       0.48834500       0.51404700
   251  H          0.71492100      -0.01165500       0.98595300
   252  H          0.78507900       0.01165500       0.48595300
   253  H          0.78507900       0.48834500       0.98595300
   254  H          0.71492100       0.51165500       0.48595300
   255  H          0.28507900       0.01165500       0.01404700
   256  H          0.21492100      -0.01165500       0.51404700
   257  H          0.27031600       0.47965100       0.13874500
   258  H          0.22968400       0.52034900       0.63874500
   259  H          0.77031600       0.02034900       0.86125500
   260  H          0.72968400       0.97965100       0.36125500
   261  H          0.72968400       0.52034900       0.86125500
   262  H          0.77031600       0.47965100       0.36125500
   263  H          0.22968400       0.97965100       0.13874500
   264  H          0.27031600       0.02034900       0.63874500
   265  H          0.26511700       0.32145400       0.31154300
   266  H          0.23488300       0.67854600       0.81154300
   267  H          0.76511700       0.17854600       0.68845700
   268  H          0.73488300       0.82145400       0.18845700
   269  H          0.73488300       0.67854600       0.68845700
   270  H          0.76511700       0.32145400       0.18845700
   271  H          0.23488300       0.82145400       0.31154300
   272  H          0.26511700       0.17854600       0.81154300
   273  H          0.19751700       0.18125200       0.33914200
   274  H          0.30248300       0.81874800       0.83914200
   275  H          0.69751700       0.31874800       0.66085800
   276  H          0.80248300       0.68125200       0.16085800
   277  H          0.80248300       0.81874800       0.66085800
   278  H          0.69751700       0.18125200       0.16085800
   279  H          0.30248300       0.68125200       0.33914200
   280  H          0.19751700       0.31874800       0.83914200
