data_TPEPHO02
_symmetry_space_group_name_H-M    'P1'
_symmetry_Int_Tables_number       1
loop_
_symmetry_equiv_pos_site_id
_symmetry_equiv_pos_as_xyz
1 x,y,z
_cell_length_a                   16.2408
_cell_length_b                   8.6445
_cell_length_c                   11.0326
_cell_angle_alpha                90.0
_cell_angle_beta                 107.898
_cell_angle_gamma                90.0
loop_
_atom_site_label
_atom_site_type_symbol
_atom_site_fract_x
_atom_site_fract_y
_atom_site_fract_z
     1  C          0.34610000       0.83410000       0.30830000
     2  C          0.15390000       0.33410000       0.69170000
     3  C          0.65390000       0.16590000       0.69170000
     4  C          0.84610000       0.66590000       0.30830000
     5  C          0.47830000       0.26140000       0.28650000
     6  C          0.02170000       0.76140000       0.71350000
     7  C          0.52170000       0.73860000       0.71350000
     8  C          0.97830000       0.23860000       0.28650000
     9  C          0.49420000       0.33910000       0.18850000
    10  C          0.00580000       0.83910000       0.81150000
    11  C          0.50580000       0.66090000       0.81150000
    12  C         -0.00580000       0.16090000       0.18850000
    13  C          0.47380000       0.49320000       0.16930000
    14  C          0.02620000      -0.00680000       0.83070000
    15  C          0.52620000       0.50680000       0.83070000
    16  C          0.97380000       0.00680000       0.16930000
    17  C          0.37110000       0.80150000       0.06200000
    18  C          0.12890000       0.30150000       0.93800000
    19  C          0.62890000       0.19850000       0.93800000
    20  C          0.87110000       0.69850000       0.06200000
    21  C          0.30880000       0.70070000      -0.01120000
    22  C          0.19120000       0.20070000       0.01120000
    23  C          0.69120000       0.29930000       0.01120000
    24  C          0.80880000       0.79930000      -0.01120000
    25  C          0.27180000       0.72640000       0.85970000
    26  C          0.22820000       0.22640000       0.14030000
    27  C          0.72820000       0.27360000       0.14030000
    28  C          0.77180000       0.77360000       0.85970000
    29  C          0.29810000       0.85060000       0.80310000
    30  C          0.20190000       0.35060000       0.19690000
    31  C          0.70190000       0.14940000       0.19690000
    32  C          0.79810000       0.64940000       0.80310000
    33  C          0.35960000       0.94990000       0.87320000
    34  C          0.14040000       0.44990000       0.12680000
    35  C          0.64040000       0.05010000       0.12680000
    36  C          0.85960000       0.55010000       0.87320000
    37  C          0.39560000       0.92650000       0.00330000
    38  C          0.10440000       0.42650000      -0.00330000
    39  C          0.60440000       0.07350000      -0.00330000
    40  C          0.89560000       0.57350000       0.00330000
    41  C          0.37450000       0.92930000       0.41280000
    42  C          0.12550000       0.42930000       0.58720000
    43  C          0.62550000       0.07070000       0.58720000
    44  C          0.87450000       0.57070000       0.41280000
    45  C          0.31700000      -0.01430000       0.47220000
    46  C          0.18300000       0.48570000       0.52780000
    47  C          0.68300000       0.01430000       0.52780000
    48  C          0.81700000       0.51430000       0.47220000
    49  C          0.23220000       0.94560000       0.42870000
    50  C          0.26780000       0.44560000       0.57130000
    51  C          0.76780000       0.05440000       0.57130000
    52  C          0.73220000       0.55440000       0.42870000
    53  C          0.20270000       0.84780000       0.32660000
    54  C          0.29730000       0.34780000       0.67340000
    55  C          0.79730000       0.15220000       0.67340000
    56  C          0.70270000       0.65220000       0.32660000
    57  C          0.25910000       0.79300000       0.26500000
    58  C          0.24090000       0.29300000       0.73500000
    59  C          0.74090000       0.20700000       0.73500000
    60  C          0.75910000       0.70700000       0.26500000
    61  C          0.43750000       0.57080000       0.24950000
    62  C          0.06250000       0.07080000       0.75050000
    63  C          0.56250000       0.42920000       0.75050000
    64  C          0.93750000       0.92920000       0.24950000
    65  C          0.42240000       0.49200000       0.34800000
    66  C          0.07760000      -0.00800000       0.65200000
    67  C          0.57760000       0.50800000       0.65200000
    68  C          0.92240000       0.00800000       0.34800000
    69  C          0.44300000       0.33750000       0.36640000
    70  C          0.05700000       0.83750000       0.63360000
    71  C          0.55700000       0.66250000       0.63360000
    72  C          0.94300000       0.16250000       0.36640000
    73  H          0.48300000       0.15700000       0.29300000
    74  H          0.01700000       0.65700000       0.70700000
    75  H          0.51700000       0.84300000       0.70700000
    76  H          0.98300000       0.34300000       0.29300000
    77  H          0.52300000       0.28100000       0.13100000
    78  H          0.97700000       0.78100000       0.86900000
    79  H          0.47700000       0.71900000       0.86900000
    80  H          0.02300000       0.21900000       0.13100000
    81  H          0.48500000       0.54800000       0.09600000
    82  H          0.01500000       0.04800000       0.90400000
    83  H          0.51500000       0.45200000       0.90400000
    84  H          0.98500000       0.95200000       0.09600000
    85  H          0.28700000       0.61800000       0.02800000
    86  H          0.21300000       0.11800000       0.97200000
    87  H          0.71300000       0.38200000       0.97200000
    88  H          0.78700000       0.88200000       0.02800000
    89  H          0.22700000       0.65200000       0.80400000
    90  H          0.27300000       0.15200000       0.19600000
    91  H          0.77300000       0.34800000       0.19600000
    92  H          0.72700000       0.84800000       0.80400000
    93  H          0.27800000       0.86100000       0.70600000
    94  H          0.22200000       0.36100000       0.29400000
    95  H          0.72200000       0.13900000       0.29400000
    96  H          0.77800000       0.63900000       0.70600000
    97  H          0.38700000       0.03000000       0.82900000
    98  H          0.11300000       0.53000000       0.17100000
    99  H          0.61300000       0.97000000       0.17100000
   100  H          0.88700000       0.47000000       0.82900000
   101  H          0.43900000      -0.00700000       0.05300000
   102  H          0.06100000       0.49300000       0.94700000
   103  H          0.56100000       0.00700000       0.94700000
   104  H          0.93900000       0.50700000       0.05300000
   105  H          0.43800000       0.95200000       0.43900000
   106  H          0.06200000       0.45200000       0.56100000
   107  H          0.56200000       0.04800000       0.56100000
   108  H          0.93800000       0.54800000       0.43900000
   109  H          0.33300000       0.05600000       0.54700000
   110  H          0.16700000       0.55600000       0.45300000
   111  H          0.66700000       0.94400000       0.45300000
   112  H          0.83300000       0.44400000       0.54700000
   113  H          0.19200000       0.00800000       0.46800000
   114  H          0.30800000       0.50800000       0.53200000
   115  H          0.80800000      -0.00800000       0.53200000
   116  H          0.69200000       0.49200000       0.46800000
   117  H          0.14100000       0.81000000       0.29700000
   118  H          0.35900000       0.31000000       0.70300000
   119  H          0.85900000       0.19000000       0.70300000
   120  H          0.64100000       0.69000000       0.29700000
   121  H          0.23700000       0.72600000       0.18000000
   122  H          0.26300000       0.22600000       0.82000000
   123  H          0.76300000       0.27400000       0.82000000
   124  H          0.73700000       0.77400000       0.18000000
   125  H          0.39500000       0.54100000       0.40000000
   126  H          0.10500000       0.04100000       0.60000000
   127  H          0.60500000       0.45900000       0.60000000
   128  H          0.89500000       0.95900000       0.40000000
   129  H          0.43500000       0.28800000       0.43800000
   130  H          0.06500000       0.78800000       0.56200000
   131  H          0.56500000       0.71200000       0.56200000
   132  H          0.93500000       0.21200000       0.43800000
   133  O          0.50530000       0.86170000       0.27660000
   134  O         -0.00530000       0.36170000       0.72340000
   135  O          0.49470000       0.13830000       0.72340000
   136  O          0.00530000       0.63830000       0.27660000
   137  P          0.42270000       0.77510000       0.22950000
   138  P          0.07730000       0.27510000       0.77050000
   139  P          0.57730000       0.22490000       0.77050000
   140  P          0.92270000       0.72490000       0.22950000
