data_TUVXAL02
_symmetry_space_group_name_H-M    'P1'
_symmetry_Int_Tables_number       1
loop_
_symmetry_equiv_pos_site_id
_symmetry_equiv_pos_as_xyz
1 x,y,z
_cell_length_a                   11.300516
_cell_length_b                   8.92637
_cell_length_c                   12.37048
_cell_angle_alpha                90.0
_cell_angle_beta                 101.4379
_cell_angle_gamma                90.0
loop_
_atom_site_label
_atom_site_type_symbol
_atom_site_fract_x
_atom_site_fract_y
_atom_site_fract_z
     1  C          0.76868000       0.70527000       0.91105000
     2  C          0.23132000       0.20527000       0.58895000
     3  C          0.23132000       0.29473000       0.08895000
     4  C          0.76868000       0.79473000       0.41105000
     5  C          0.66107000       0.72186000       0.81874000
     6  C          0.33893000       0.22186000       0.68126000
     7  C          0.33893000       0.27814000       0.18126000
     8  C          0.66107000       0.77814000       0.31874000
     9  C          0.67028000       0.80625000       0.72624000
    10  C          0.32972000       0.30625000       0.77376000
    11  C          0.32972000       0.19375000       0.27376000
    12  C          0.67028000       0.69375000       0.22624000
    13  C          0.57217000       0.82056000       0.64004000
    14  C          0.42783000       0.32056000       0.85996000
    15  C          0.42783000       0.17944000       0.35996000
    16  C          0.57217000       0.67944000       0.14004000
    17  C          0.46457000       0.74856000       0.64194000
    18  C          0.53543000       0.24856000       0.85806000
    19  C          0.53543000       0.25144000       0.35806000
    20  C          0.46457000       0.75144000       0.14194000
    21  C          0.45328000       0.66366000       0.73374000
    22  C          0.54672000       0.16366000       0.76626000
    23  C          0.54672000       0.33634000       0.26626000
    24  C          0.45328000       0.83634000       0.23374000
    25  C          0.55167000       0.65317000       0.81975000
    26  C          0.44833000       0.15317000       0.68025000
    27  C          0.44833000       0.34683000       0.18025000
    28  C          0.55167000       0.84683000       0.31975000
    29  C          0.36367000       0.76615000       0.54784000
    30  C          0.63633000       0.26615000       0.95216000
    31  C          0.63633000       0.23385000       0.45216000
    32  C          0.36367000       0.73385000       0.04784000
    33  O          0.35796000       0.87304000       0.48463000
    34  O          0.64204000       0.37304000       0.01537000
    35  O          0.64204000       0.12696000       0.51537000
    36  O          0.35796000       0.62696000       0.98463000
    37  C          0.27127000       0.64116000       0.52085000
    38  C          0.72873000       0.14116000       0.97915000
    39  C          0.72873000       0.35884000       0.47915000
    40  C          0.27127000       0.85884000       0.02085000
    41  C          0.31799000       0.52696000       0.44706000
    42  C          0.68201000       0.02696000       0.05294000
    43  C          0.68201000       0.47304000       0.55294000
    44  C          0.31799000       0.97304000       0.94706000
    45  N          0.15616000       0.70455000       0.45834000
    46  N          0.84384000       0.20455000       0.04166000
    47  N          0.84384000       0.29545000       0.54166000
    48  N          0.15616000       0.79545000       0.95834000
    49  C          0.10309000       0.82116000       0.52105000
    50  C          0.89691000       0.32116000       0.97895000
    51  C          0.89691000       0.17884000       0.47895000
    52  C          0.10309000       0.67884000       0.02105000
    53  H          0.74490000       0.66490000       0.97470000
    54  H          0.25510000       0.16490000       0.52530000
    55  H          0.25510000       0.33510000       0.02530000
    56  H          0.74490000       0.83510000       0.47470000
    57  H          0.80660000       0.79910000       0.93060000
    58  H          0.19340000       0.29910000       0.56940000
    59  H          0.19340000       0.20090000       0.06940000
    60  H          0.80660000       0.70090000       0.43060000
    61  H          0.82720000       0.63860000       0.89110000
    62  H          0.17280000       0.13860000       0.60890000
    63  H          0.17280000       0.36140000       0.10890000
    64  H          0.82720000       0.86140000       0.39110000
    65  H          0.74240000       0.85270000       0.72260000
    66  H          0.25760000       0.35270000       0.77740000
    67  H          0.25760000       0.14730000       0.27740000
    68  H          0.74240000       0.64730000       0.22260000
    69  H          0.57920000       0.87840000       0.57900000
    70  H          0.42080000       0.37840000       0.92100000
    71  H          0.42080000       0.12160000       0.42100000
    72  H          0.57920000       0.62160000       0.07900000
    73  H          0.38170000       0.61410000       0.73730000
    74  H          0.61830000       0.11410000       0.76270000
    75  H          0.61830000       0.38590000       0.26270000
    76  H          0.38170000       0.88590000       0.23730000
    77  H          0.54290000       0.59840000       0.88210000
    78  H          0.45710000       0.09840000       0.61790000
    79  H          0.45710000       0.40160000       0.11790000
    80  H          0.54290000       0.90160000       0.38210000
    81  H          0.25820000       0.59410000       0.58890000
    82  H          0.74180000       0.09410000       0.91110000
    83  H          0.74180000       0.40590000       0.41110000
    84  H          0.25820000       0.90590000       0.08890000
    85  H          0.25930000       0.44990000       0.42760000
    86  H          0.74070000       0.94990000       0.07240000
    87  H          0.74070000       0.55010000       0.57240000
    88  H          0.25930000       0.05010000       0.92760000
    89  H          0.39070000       0.48210000       0.48660000
    90  H          0.60930000       0.98210000       0.01340000
    91  H          0.60930000       0.51790000       0.51340000
    92  H          0.39070000       0.01790000       0.98660000
    93  H          0.33330000       0.57450000       0.38170000
    94  H          0.66670000       0.07450000       0.11830000
    95  H          0.66670000       0.42550000       0.61830000
    96  H          0.33330000       0.92550000       0.88170000
    97  H          0.01700000       0.80950000       0.50740000
    98  H          0.98300000       0.30950000      -0.00740000
    99  H          0.98300000       0.19050000       0.49260000
   100  H          0.01700000       0.69050000       0.00740000
   101  H          0.12090000       0.91810000       0.49820000
   102  H          0.87910000       0.41810000       0.00180000
   103  H          0.87910000       0.08190000       0.50180000
   104  H          0.12090000       0.58190000      -0.00180000
   105  H          0.13650000       0.81130000       0.59830000
   106  H          0.86350000       0.31130000       0.90170000
   107  H          0.86350000       0.18870000       0.40170000
   108  H          0.13650000       0.68870000       0.09830000
   109  H          0.17130000       0.74960000       0.39280000
   110  H          0.82870000       0.24960000       0.10720000
   111  H          0.82870000       0.25040000       0.60720000
   112  H          0.17130000       0.75040000       0.89280000
   113  H          0.10000000       0.62490000       0.43950000
   114  H          0.90000000       0.12490000       0.06050000
   115  H          0.90000000       0.37510000       0.56050000
   116  H          0.10000000       0.87510000       0.93950000
   117  S          0.04413000       0.55469160       0.72732120
   118  S          0.95587000       0.05469160       0.77267880
   119  S          0.95587000       0.44530840       0.27267880
   120  S          0.04413000       0.94530840       0.22732120
   121  O          0.02956000       0.43834000       0.80513000
   122  O          0.97044000       0.93834000       0.69487000
   123  O          0.97044000       0.56166000       0.19487000
   124  O          0.02956000       0.06166000       0.30513000
   125  O          0.03266000       0.49894000       0.61723000
   126  O          0.96734000      -0.00106000       0.88277000
   127  O          0.96734000       0.50106000       0.38277000
   128  O          0.03266000       0.00106000       0.11723000
   129  O          0.15376000       0.63994000       0.76133000
   130  O          0.84624000       0.13994000       0.73867000
   131  O          0.84624000       0.36006000       0.23867000
   132  O          0.15376000       0.86006000       0.26133000
   133  O          0.93693000       0.65955000       0.73134000
   134  O          0.06307000       0.15955000       0.76866000
   135  O          0.06307000       0.34045000       0.26866000
   136  O          0.93693000       0.84045000       0.23134000
   137  H          0.95840000       0.74890000       0.71920000
   138  H          0.04160000       0.24890000       0.78080000
   139  H          0.04160000       0.25110000       0.28080000
   140  H          0.95840000       0.75110000       0.21920000
