data_TUVXAL06
_symmetry_space_group_name_H-M    'P1'
_symmetry_Int_Tables_number       1
loop_
_symmetry_equiv_pos_site_id
_symmetry_equiv_pos_as_xyz
1 x,y,z
_cell_length_a                   10.9562
_cell_length_b                   14.070015
_cell_length_c                   14.409016
_cell_angle_alpha                76.1518
_cell_angle_beta                 79.00111
_cell_angle_gamma                80.00613
loop_
_atom_site_label
_atom_site_type_symbol
_atom_site_fract_x
_atom_site_fract_y
_atom_site_fract_z
     1  C          0.81320000       0.91619000       0.63459000
     2  C          0.18680000       0.08381000       0.36541000
     3  C          0.70631900       0.97248000       0.69077000
     4  C          0.29368100       0.02752000       0.30923000
     5  C          0.70820000       0.96838000       0.78777000
     6  C          0.29180000       0.03162000       0.21223000
     7  C          0.61101800       0.02018000       0.84098000
     8  C          0.38898200       0.97982000       0.15902000
     9  C          0.51611800       0.08078000       0.79517000
    10  C          0.48388200       0.91922000       0.20483000
    11  C          0.51420000       0.08608000       0.69807000
    12  C          0.48580000       0.91392000       0.30193000
    13  C          0.60781800       0.03008000       0.64738000
    14  C          0.39218200       0.96992000       0.35262000
    15  C          0.41761800       0.13688000       0.85456000
    16  C          0.58238200       0.86312000       0.14544000
    17  O          0.40520000       0.11636000       0.94315000
    18  O          0.59480000       0.88364000       0.05685000
    19  C          0.32671800       0.22097000       0.80769000
    20  C          0.67328200       0.77903000       0.19231000
    21  C          0.32430000       0.31308000       0.84631000
    22  C          0.67570000       0.68692000       0.15369000
    23  N          0.20201900       0.18437000       0.83618000
    24  N          0.79798100       0.81563000       0.16382000
    25  C          0.20140000       0.08629000       0.81411100
    26  C          0.79860000       0.91371000       0.18588900
    27  H          0.79800000       0.92760000       0.56960000
    28  H          0.20200000       0.07240000       0.43040000
    29  H          0.88880000       0.93910000       0.63550000
    30  H          0.11120000       0.06090000       0.36450000
    31  H          0.81810000       0.84740000       0.66220000
    32  H          0.18190000       0.15260000       0.33780000
    33  H          0.77410000       0.92840000       0.81850000
    34  H          0.22590000       0.07160000       0.18150000
    35  H          0.61020000       0.01460000       0.90810000
    36  H          0.38980000       0.98540000       0.09190000
    37  H          0.45080000       0.12920000       0.66600000
    38  H          0.54920000       0.87080000       0.33400000
    39  H          0.60400000       0.03030000       0.58190000
    40  H          0.39600000       0.96970000       0.41810000
    41  H          0.34940000       0.23370000       0.73920000
    42  H          0.65060000       0.76630000       0.26080000
    43  H          0.29790000       0.30030000       0.91440000
    44  H          0.70210000       0.69970000       0.08560000
    45  H          0.26710000       0.36480000       0.81600000
    46  H          0.73290000       0.63520000       0.18400000
    47  H          0.40570000       0.33200000       0.83160000
    48  H          0.59430000       0.66800000       0.16840000
    49  H          0.25950000       0.04010000       0.84910000
    50  H          0.74050000       0.95990000       0.15090000
    51  H          0.12030000       0.06610000       0.83360000
    52  H          0.87970000       0.93390000       0.16640000
    53  H          0.22670000       0.08900000       0.74680000
    54  H          0.77330000       0.91100000       0.25320000
    55  H          0.17640000       0.17950000       0.90370000
    56  H          0.82360000       0.82050000       0.09630000
    57  H          0.14300000       0.23020000       0.80190000
    58  H          0.85700000       0.76980000       0.19810000
    59  C          0.15420000       0.89239000       0.08629000
    60  C          0.84580000       0.10761000       0.91371000
    61  C          0.26641900       0.83286000       0.03989000
    62  C          0.73358100       0.16714000       0.96011000
    63  C          0.28020000       0.73066000       0.06159000
    64  C          0.71980000       0.26934000       0.93841000
    65  C          0.38671700       0.67567000       0.02388000
    66  C          0.61328300       0.32433000       0.97612000
    67  C          0.48171700       0.72326000       0.96218000
    68  C          0.51828300       0.27674000       0.03782000
    69  C          0.47020000       0.82616000       0.93719000
    70  C          0.52980000       0.17384000       0.06281000
    71  C          0.36271900       0.87848000       0.97809000
    72  C          0.63728100       0.12152000       0.02191000
    73  C          0.59681800       0.66376000       0.92288000
    74  C          0.40318200       0.33624000       0.07712000
    75  O          0.61920000       0.57395000       0.94576000
    76  O          0.38080000       0.42605000       0.05424000
    77  C          0.68431500       0.71948000       0.84167000
    78  C          0.31568500       0.28052000       0.15833000
    79  C          0.63120000       0.74259000       0.74748000
    80  C          0.36880000       0.25741000       0.25252000
    81  N          0.80771600       0.65557000       0.83476000
    82  N          0.19228400       0.34443000       0.16524000
    83  C          0.86820000       0.62248000       0.92368000
    84  C          0.13180000       0.37752000       0.07632000
    85  H          0.15780000       0.96080000       0.06190000
    86  H          0.84220000       0.03920000       0.93810000
    87  H          0.07980000       0.87580000       0.07210000
    88  H          0.92020000       0.12420000       0.92790000
    89  H          0.15230000       0.87700000       0.15420000
    90  H          0.84770000       0.12300000       0.84580000
    91  H          0.21580000       0.69740000       0.10460000
    92  H          0.78420000       0.30260000       0.89540000
    93  H          0.39620000       0.60550000       0.04070000
    94  H          0.60380000       0.39450000       0.95930000
    95  H          0.53260000       0.85930000       0.89220000
    96  H          0.46740000       0.14070000       0.10780000
    97  H          0.35480000       0.94850000       0.96330000
    98  H          0.64520000       0.05150000       0.03670000
    99  H          0.69450000       0.77900000       0.85760000
   100  H          0.30550000       0.22100000       0.14240000
   101  H          0.68690000       0.77740000       0.69770000
   102  H          0.31310000       0.22260000       0.30230000
   103  H          0.55130000       0.78200000       0.75430000
   104  H          0.44870000       0.21800000       0.24570000
   105  H          0.94580000       0.58210000       0.91150000
   106  H          0.05420000       0.41790000       0.08850000
   107  H          0.62170000       0.68280000       0.73110000
   108  H          0.37830000       0.31720000       0.26890000
   109  H          0.88160000       0.67860000       0.94390000
   110  H          0.11840000       0.32140000       0.05610000
   111  H          0.81300000       0.58580000       0.97290000
   112  H          0.18700000       0.41420000       0.02710000
   113  H          0.79620000       0.59800000       0.81550000
   114  H          0.20380000       0.40200000       0.18450000
   115  H          0.86440000       0.69110000       0.78600000
   116  H          0.13560000       0.30890000       0.21400000
   117  C          0.19620000       0.59619000       0.86999000
   118  C          0.80380000       0.40381000       0.13001000
   119  C          0.31431900       0.56439000       0.80548000
   120  C          0.68568100       0.43561000       0.19452000
   121  C          0.30991900       0.56118000       0.71027000
   122  C          0.69008100       0.43882000       0.28973000
   123  C          0.41851700       0.52389000       0.65611000
   124  C          0.58148300       0.47611000       0.34389000
   125  C          0.53021700       0.49059000       0.69268000
   126  C          0.46978300       0.50941000       0.30732000
   127  C          0.53531900       0.49888000       0.78587000
   128  C          0.46468100       0.50112000       0.21413000
   129  C          0.42731700       0.53578000       0.84111000
   130  C          0.57268300       0.46422000       0.15889000
   131  C          0.63961800       0.44138000       0.63616000
   132  C          0.36038200       0.55862000       0.36384000
   133  O          0.65320000       0.45416000       0.54805000
   134  O          0.34680000       0.54584000       0.45195000
   135  C          0.72331500       0.36037000       0.69328000
   136  C          0.27668500       0.63963000       0.30672000
   137  C          0.65630000       0.26909000       0.72501000
   138  C          0.34370000       0.73091000       0.27499000
   139  N          0.84651600       0.34277000       0.63187000
   140  N          0.15348400       0.65723000       0.36813000
   141  C          0.91320000       0.43138000       0.60119000
   142  C          0.08680000       0.56862000       0.39881000
   143  H          0.21770000       0.59260000       0.93160000
   144  H          0.78230000       0.40740000       0.06840000
   145  H          0.13590000       0.55320000       0.87620000
   146  H          0.86410000       0.44680000       0.12380000
   147  H          0.16270000       0.66200000       0.84400000
   148  H          0.83730000       0.33800000       0.15600000
   149  H          0.23510000       0.58550000       0.68300000
   150  H          0.76490000       0.41450000       0.31700000
   151  H          0.41660000       0.52020000       0.59140000
   152  H          0.58340000       0.47980000       0.40860000
   153  H          0.61130000       0.47780000       0.81180000
   154  H          0.38870000       0.52220000       0.18820000
   155  H          0.43060000       0.54250000       0.90460000
   156  H          0.56940000       0.45750000       0.09540000
   157  H          0.73580000       0.38110000       0.74830000
   158  H          0.26420000       0.61890000       0.25170000
   159  H          0.57800000       0.28280000       0.76440000
   160  H          0.42200000       0.71720000       0.23560000
   161  H          0.70790000       0.21790000       0.76110000
   162  H          0.29210000       0.78210000       0.23890000
   163  H          0.64220000       0.24860000       0.67000000
   164  H          0.35780000       0.75140000       0.33000000
   165  H          0.92630000       0.45190000       0.65620000
   166  H          0.07370000       0.54810000       0.34380000
   167  H          0.99140000       0.41770000       0.56190000
   168  H          0.00860000       0.58230000       0.43810000
   169  H          0.86110000       0.48220000       0.56480000
   170  H          0.13890000       0.51780000       0.43520000
   171  H          0.83360000       0.32370000       0.57580000
   172  H          0.16640000       0.67630000       0.42420000
   173  H          0.89780000       0.29090000       0.66760000
   174  H          0.10220000       0.70910000       0.33240000
   175  C          0.22820000       0.35659000       0.60611000
   176  C          0.77180000       0.64341000       0.39389000
   177  C          0.33551800       0.29597000       0.55548000
   178  C          0.66448200       0.70403000       0.44452000
   179  C          0.31221900       0.21147000       0.53119000
   180  C          0.68778100       0.78853000       0.46881000
   181  C          0.40921700       0.15849000       0.47959000
   182  C          0.59078300       0.84151000       0.52041000
   183  C          0.52661600       0.18968000       0.44729000
   184  C          0.47338400       0.81032000       0.55271000
   185  C          0.54891900       0.27317000       0.47398000
   186  C          0.45108100       0.72683000       0.52602000
   187  C          0.45451700       0.32509000       0.52859000
   188  C          0.54548300       0.67491000       0.47141000
   189  C          0.62431800       0.13366000       0.38698000
   190  C          0.37568200       0.86634000       0.61302000
   191  O          0.62220000       0.04675000       0.38896000
   192  O          0.37780000       0.95325000       0.61104000
   193  C          0.72031700       0.18901000       0.31437000
   194  C          0.27968300       0.81099000       0.68563000
   195  C          0.70830000       0.18299000       0.21328000
   196  C          0.29170000       0.81701000       0.78672000
   197  N          0.84431900       0.13827000       0.33906000
   198  N          0.15568100       0.86173000       0.66094000
   199  C          0.85730000       0.12641000       0.44228000
   200  C          0.14270000       0.87359000       0.55772000
   201  H          0.25900000       0.41140000       0.61720000
   202  H          0.74100000       0.58860000       0.38280000
   203  H          0.16500000       0.37940000       0.56630000
   204  H          0.83500000       0.62060000       0.43370000
   205  H          0.19450000       0.31820000       0.66630000
   206  H          0.80550000       0.68180000       0.33370000
   207  H          0.23210000       0.18960000       0.55080000
   208  H          0.76790000       0.81040000       0.44920000
   209  H          0.39470000       0.09940000       0.46470000
   210  H          0.60530000       0.90060000       0.53530000
   211  H          0.62880000       0.29540000       0.45360000
   212  H          0.37120000       0.70460000       0.54640000
   213  H          0.47140000       0.38030000       0.54860000
   214  H          0.52860000       0.61970000       0.45140000
   215  H          0.70930000       0.25570000       0.32070000
   216  H          0.29070000       0.74430000       0.67930000
   217  H          0.71960000       0.11620000       0.20680000
   218  H          0.28040000       0.88380000       0.79320000
   219  H          0.76840000       0.21770000       0.16800000
   220  H          0.23160000       0.78230000       0.83200000
   221  H          0.62590000       0.21290000       0.20110000
   222  H          0.37410000       0.78710000       0.79890000
   223  H          0.84330000       0.18910000       0.45910000
   224  H          0.15670000       0.81090000       0.54090000
   225  H          0.93820000       0.09420000       0.45350000
   226  H          0.06180000       0.90580000       0.54650000
   227  H          0.79560000       0.08730000       0.48050000
   228  H          0.20440000       0.91270000       0.51950000
   229  H          0.85800000       0.07440000       0.32450000
   230  H          0.14200000       0.92560000       0.67550000
   231  H          0.90690000       0.17600000       0.30030000
   232  H          0.09310000       0.82400000       0.69970000
   233  S          0.97357000       0.83152000       0.91842000
   234  S          0.02643000       0.16848000       0.08158000
   235  O          0.97320000       0.80526000       0.82845000
   236  O          0.02680000       0.19474000       0.17155000
   237  O          0.84931200       0.85396000       0.96846000
   238  O          0.15068800       0.14604000       0.03154000
   239  O          0.05201400       0.76055000       0.97975000
   240  O          0.94798600       0.23945000       0.02025000
   241  O          0.03920000       0.92576000       0.89456000
   242  O          0.96080000       0.07424000       0.10544000
   243  H          0.04390000       0.95080000       0.83430000
   244  H          0.95610000       0.04920000       0.16570000
   245  S          0.97008000       0.67152000       0.60762000
   246  S          0.02992000       0.32848000       0.39238000
   247  O         -0.00478400       0.71445000       0.68175000
   248  O          0.00478400       0.28555000       0.31825000
   249  O          0.84811100       0.63697000       0.63256000
   250  O          0.15188900       0.36303000       0.36744000
   251  O          0.98720000       0.73315000       0.51275000
   252  O          0.01280000       0.26685000       0.48725000
   253  O          0.07020000       0.58166000       0.59856000
   254  O          0.92980000       0.41834000       0.40144000
   255  H          0.06710000       0.54140000       0.65280000
   256  H          0.93290000       0.45860000       0.34720000
   257  S          0.97278000       0.41832000       0.82462000
   258  S          0.02722000       0.58168000       0.17538000
   259  O         -0.00180000       0.32405000       0.79746000
   260  O          0.00180000       0.67595000       0.20254000
   261  O          0.84411100       0.46216000       0.82496000
   262  O          0.15588900       0.53784000       0.17504000
   263  O          0.05721500       0.48636000       0.76846000
   264  O          0.94278500       0.51364000       0.23154000
   265  O         -0.00080000       0.40236000       0.92876000
   266  O          0.00080000       0.59764000       0.07124000
   267  H          0.95100000       0.34860000       0.95070000
   268  H          0.04900000       0.65140000       0.04930000
   269  S          0.97899000       0.10812000       0.66372000
   270  S          0.02101000       0.89188000       0.33628000
   271  O          0.02001600       0.18385000       0.69755000
   272  O          0.97998400       0.81615000       0.30245000
   273  O          0.85441200       0.13327000       0.63747000
   274  O          0.14558800       0.86673000       0.36253000
   275  O         -0.00678100       0.01204000       0.72815000
   276  O          0.00678100       0.98796000       0.27185000
   277  O          0.06820000       0.08876000       0.57316000
   278  O          0.93180000       0.91124000       0.42684000
   279  H          0.05020000       0.14140000       0.52570000
   280  H          0.94980000       0.85860000       0.47430000
