data_TUVXAL
_symmetry_space_group_name_H-M    'P1'
_symmetry_Int_Tables_number       1
loop_
_symmetry_equiv_pos_site_id
_symmetry_equiv_pos_as_xyz
1 x,y,z
_cell_length_a                   12.10674
_cell_length_b                   8.76262
_cell_length_c                   12.97314
_cell_angle_alpha                90.0
_cell_angle_beta                 98.0182
_cell_angle_gamma                90.0
loop_
_atom_site_label
_atom_site_type_symbol
_atom_site_fract_x
_atom_site_fract_y
_atom_site_fract_z
     1  C          0.71312000       0.69814000       0.84922000
     2  C          0.28688000       0.19814000       0.65078000
     3  C          0.28688000       0.30186000       0.15078000
     4  C          0.71312000       0.80186000       0.34922000
     5  C          0.61478160       0.71752000       0.76572160
     6  C          0.38521840       0.21752000       0.73427840
     7  C          0.38521840       0.28248000       0.23427840
     8  C          0.61478160       0.78248000       0.26572160
     9  C          0.62449160       0.79652000       0.67500160
    10  C          0.37550840       0.29652000       0.82499840
    11  C          0.37550840       0.20348000       0.32499840
    12  C          0.62449160       0.70348000       0.17500160
    13  C          0.53433160       0.81112000       0.59789160
    14  C          0.46566840       0.31112000       0.90210840
    15  C          0.46566840       0.18888000       0.40210840
    16  C          0.53433160       0.68888000       0.09789160
    17  C          0.43173150       0.74652000       0.60897150
    18  C          0.56826850       0.24652000       0.89102850
    19  C          0.56826850       0.25348000       0.39102850
    20  C          0.43173150       0.75348000       0.10897150
    21  C          0.42110180       0.66733000       0.69943170
    22  C          0.57889820       0.16733000       0.80056830
    23  C          0.57889820       0.33267000       0.30056830
    24  C          0.42110180       0.83267000       0.19943170
    25  C          0.51232190       0.65443000       0.77730170
    26  C          0.48767810       0.15443000       0.72269830
    27  C          0.48767810       0.34557000       0.22269830
    28  C          0.51232190       0.84557000       0.27730170
    29  C          0.33674150       0.77072000       0.52559150
    30  C          0.66325850       0.27072000       0.97440850
    31  C          0.66325850       0.22928000       0.47440850
    32  C          0.33674150       0.72928000       0.02559150
    33  O          0.33316130       0.87782000       0.46625130
    34  O          0.66683870       0.37782000       0.03374870
    35  O          0.66683870       0.12218000       0.53374870
    36  O          0.33316130       0.62218000       0.96625130
    37  C          0.24386160       0.65202000       0.50945150
    38  C          0.75613840       0.15202000      -0.00945150
    39  C          0.75613840       0.34798000       0.49054850
    40  C          0.24386160       0.84798000       0.00945150
    41  C          0.28102000       0.52103000       0.44493000
    42  C          0.71898000       0.02103000       0.05507000
    43  C          0.71898000       0.47897000       0.55507000
    44  C          0.28102000       0.97897000       0.94493000
    45  N          0.14243130       0.72322180       0.45173120
    46  N          0.85756870       0.22322180       0.04826880
    47  N          0.85756870       0.27677820       0.54826880
    48  N          0.14243130       0.77677820       0.95173120
    49  C          0.08642000       0.83313000       0.51419180
    50  C          0.91358000       0.33313000       0.98580820
    51  C          0.91358000       0.16687000       0.48580820
    52  C          0.08642000       0.66687000       0.01419180
    53  H          0.69140000       0.64180000       0.90580000
    54  H          0.30860000       0.14180000       0.59420000
    55  H          0.30860000       0.35820000       0.09420000
    56  H          0.69140000       0.85820000       0.40580000
    57  H          0.74010000       0.79570000       0.87310000
    58  H          0.25990000       0.29570000       0.62690000
    59  H          0.25990000       0.20430000       0.12690000
    60  H          0.74010000       0.70430000       0.37310000
    61  H          0.77030000       0.64430000       0.82130000
    62  H          0.22970000       0.14430000       0.67870000
    63  H          0.22970000       0.35570000       0.17870000
    64  H          0.77030000       0.85570000       0.32130000
    65  H          0.69420000       0.84040000       0.66570000
    66  H          0.30580000       0.34040000       0.83430000
    67  H          0.30580000       0.15960000       0.33430000
    68  H          0.69420000       0.65960000       0.16570000
    69  H          0.54220000       0.86620000       0.53610000
    70  H          0.45780000       0.36620000       0.96390000
    71  H          0.45780000       0.13380000       0.46390000
    72  H          0.54220000       0.63380000       0.03610000
    73  H          0.35160000       0.62270000       0.70870000
    74  H          0.64840000       0.12270000       0.79130000
    75  H          0.64840000       0.37730000       0.29130000
    76  H          0.35160000       0.87730000       0.20870000
    77  H          0.50390000       0.60120000       0.83970000
    78  H          0.49610000       0.10120000       0.66030000
    79  H          0.49610000       0.39880000       0.16030000
    80  H          0.50390000       0.89880000       0.33970000
    81  H          0.22850000       0.61540000       0.57510000
    82  H          0.77150000       0.11540000       0.92490000
    83  H          0.77150000       0.38460000       0.42490000
    84  H          0.22850000       0.88460000       0.07510000
    85  H          0.22380000       0.44580000       0.43450000
    86  H          0.77620000       0.94580000       0.06550000
    87  H          0.77620000       0.55420000       0.56550000
    88  H          0.22380000       0.05420000       0.93450000
    89  H          0.34700000       0.47670000       0.48080000
    90  H          0.65300000       0.97670000       0.01920000
    91  H          0.65300000       0.52330000       0.51920000
    92  H          0.34700000       0.02330000       0.98080000
    93  H          0.29520000       0.55860000       0.37910000
    94  H          0.70480000       0.05860000       0.12090000
    95  H          0.70480000       0.44140000       0.62090000
    96  H          0.29520000       0.94140000       0.87910000
    97  H          0.02270000       0.87400000       0.47220000
    98  H          0.97730000       0.37400000       0.02780000
    99  H          0.97730000       0.12600000       0.52780000
   100  H          0.02270000       0.62600000       0.97220000
   101  H          0.13710000       0.91370000       0.53650000
   102  H          0.86290000       0.41370000       0.96350000
   103  H          0.86290000       0.08630000       0.46350000
   104  H          0.13710000       0.58630000       0.03650000
   105  H          0.06480000       0.78330000       0.57310000
   106  H          0.93520000       0.28330000       0.92690000
   107  H          0.93520000       0.21670000       0.42690000
   108  H          0.06480000       0.71670000       0.07310000
   109  H          0.16230000       0.76770000       0.39090000
   110  H          0.83770000       0.26770000       0.10910000
   111  H          0.83770000       0.23230000       0.60910000
   112  H          0.16230000       0.73230000       0.89090000
   113  H          0.09310000       0.64690000       0.43020000
   114  H          0.90690000       0.14690000       0.06980000
   115  H          0.90690000       0.35310000       0.56980000
   116  H          0.09310000       0.85310000       0.93020000
   117  S          0.05867400       0.50890500       0.73313400
   118  S          0.94132600       0.00890500       0.76686600
   119  S          0.94132600       0.49109500       0.26686600
   120  S          0.05867400      -0.00890500       0.23313400
   121  O          0.07041140       0.37350180       0.79771130
   122  O          0.92958860       0.87350180       0.70228870
   123  O          0.92958860       0.62649820       0.20228870
   124  O          0.07041140       0.12649820       0.29771130
   125  O          0.03444140       0.47579190       0.62346110
   126  O          0.96555860       0.97579190       0.87653890
   127  O          0.96555860       0.52420810       0.37653890
   128  O          0.03444140       0.02420810       0.12346110
   129  O          0.14999110       0.61437170       0.75628110
   130  O          0.85000890       0.11437170       0.74371890
   131  O          0.85000890       0.38562830       0.24371890
   132  O          0.14999110       0.88562830       0.25628110
   133  O          0.95336880       0.58792000       0.76661140
   134  O          0.04663120       0.08792000       0.73338860
   135  O          0.04663120       0.41208000       0.23338860
   136  O          0.95336880       0.91208000       0.26661140
   137  H          0.94550000       0.67450000       0.73850000
   138  H          0.05450000       0.17450000       0.76150000
   139  H          0.05450000       0.32550000       0.26150000
   140  H          0.94550000       0.82550000       0.23850000
