data_UCAYED02
_symmetry_space_group_name_H-M    'P1'
_symmetry_Int_Tables_number       1
loop_
_symmetry_equiv_pos_site_id
_symmetry_equiv_pos_as_xyz
1 x,y,z
_cell_length_a                   5.13989
_cell_length_b                   19.090116
_cell_length_c                   19.152015
_cell_angle_alpha                90.0
_cell_angle_beta                 90.0
_cell_angle_gamma                90.0
loop_
_atom_site_label
_atom_site_type_symbol
_atom_site_fract_x
_atom_site_fract_y
_atom_site_fract_z
     1  O          0.66767000       0.30583170       0.18317170
     2  O          0.83233000       0.69416830       0.68317170
     3  O          0.33233000       0.80583170       0.31682830
     4  O          0.16767000       0.19416830       0.81682830
     5  H          0.57400000       0.33770000       0.21310000
     6  H          0.92600000       0.66230000       0.71310000
     7  H          0.42600000       0.83770000       0.28690000
     8  H          0.07400000       0.16230000       0.78690000
     9  F          0.28616000       0.40206160       0.14725150
    10  F          0.21384000       0.59793840       0.64725150
    11  F          0.71384000       0.90206160       0.35274850
    12  F          0.78616000       0.09793840       0.85274850
    13  F          0.27056000       0.45782170       0.01658170
    14  F          0.22944000       0.54217830       0.51658170
    15  F          0.72944000       0.95782170       0.48341830
    16  F          0.77056000       0.04217830       0.98341830
    17  F          0.62807000       0.41707170       0.91868860
    18  F          0.87193000       0.58292830       0.41868860
    19  F          0.37193000       0.91707170       0.58131140
    20  F          0.12807000       0.08292830       0.08131140
    21  F         -0.00154000       0.32159160       0.95335840
    22  F          0.50154000       0.67840840       0.45335840
    23  F          0.00154000       0.82159160       0.54664160
    24  F          0.49846000       0.17840840       0.04664160
    25  F          0.01586000       0.26748150       0.08399150
    26  F          0.48414000       0.73251850       0.58399150
    27  F         -0.01586000       0.76748150       0.41600850
    28  F          0.51586000       0.23251850       0.91600850
    29  C          0.65209000       0.33532000       0.11762000
    30  C          0.84791000       0.66468000       0.61762000
    31  C          0.34791000       0.83532000       0.38238000
    32  C          0.15209000       0.16468000       0.88238000
    33  C          0.46401000       0.38223000       0.09953000
    34  C          0.03599000       0.61777000       0.59953000
    35  C          0.53599000       0.88223000       0.40047000
    36  C          0.96401000       0.11777000       0.90047000
    37  C          0.45481000       0.41103000       0.03313000
    38  C          0.04519000       0.58897000       0.53313000
    39  C          0.54519000       0.91103000       0.46687000
    40  C          0.95481000       0.08897000       0.96687000
    41  C          0.63371100       0.38993000       0.98417000
    42  C          0.86628900       0.61007000       0.48417000
    43  C          0.36628900       0.88993000       0.51583000
    44  C          0.13371100       0.11007000       0.01583000
    45  C          0.82151100       0.34253000       0.00153000
    46  C          0.67848900       0.65747000       0.50153000
    47  C          0.17848900       0.84253000       0.49847000
    48  C          0.32151100       0.15747000      -0.00153000
    49  C          0.82961000       0.31503000       0.06753000
    50  C          0.67039000       0.68497000       0.56753000
    51  C          0.17039000       0.81503000       0.43247000
    52  C          0.32961000       0.18497000       0.93247000
    53  O          0.06717000       0.23291180       0.23918170
    54  O          0.43283000       0.76708820       0.73918170
    55  O          0.93283000       0.73291180       0.26081830
    56  O          0.56717000       0.26708820       0.76081830
    57  H          0.94080000       0.25010000       0.21150000
    58  H          0.55920000       0.74990000       0.71150000
    59  H          0.05920000       0.75010000       0.28850000
    60  H          0.44080000       0.24990000       0.78850000
    61  F          0.71626000       0.14058150       0.17920160
    62  F          0.78374000       0.85941850       0.67920160
    63  F          0.28374000       0.64058150       0.32079840
    64  F          0.21626000       0.35941850       0.82079840
    65  F          0.75737000       0.00046160       0.20329170
    66  F          0.74263000      -0.00046160       0.70329170
    67  F          0.24263000       0.50046160       0.29670830
    68  F          0.25737000       0.49953840       0.79670830
    69  F          0.14656000       0.95060850       0.28769160
    70  F          0.35344000       0.04939150       0.78769160
    71  F          0.85344000       0.45060850       0.21230840
    72  F          0.64656000       0.54939150       0.71230840
    73  F          0.48486000       0.04160150       0.34751150
    74  F          0.01514000       0.95839850       0.84751150
    75  F          0.51514000       0.54160150       0.15248850
    76  F         -0.01514000       0.45839850       0.65248850
    77  F          0.44626000       0.18107150       0.32193160
    78  F          0.05374000       0.81892850       0.82193160
    79  F          0.55374000       0.68107150       0.17806840
    80  F          0.94626000       0.31892850       0.67806840
    81  C          0.08011000       0.16283000       0.25032000
    82  C          0.41989000       0.83717000       0.75032000
    83  C          0.91989000       0.66283000       0.24968000
    84  C          0.58011000       0.33717000       0.74968000
    85  C          0.90851000       0.11533000       0.22103000
    86  C          0.59149000       0.88467000       0.72103000
    87  C          0.09149000       0.61533000       0.27897000
    88  C          0.40851000       0.38467000       0.77897000
    89  C          0.92811000       0.04443000       0.23313000
    90  C          0.57189000       0.95557000       0.73313000
    91  C          0.07189000       0.54443000       0.26687000
    92  C          0.42811000       0.45557000       0.76687000
    93  C          0.12301100       0.01933000       0.27553000
    94  C          0.37698900       0.98067000       0.77553000
    95  C          0.87698900       0.51933000       0.22447000
    96  C          0.62301100       0.48067000       0.72447000
    97  C          0.29621000       0.06633000       0.30513000
    98  C          0.20379000       0.93367000       0.80513000
    99  C          0.70379000       0.56633000       0.19487000
   100  C          0.79621000       0.43367000       0.69487000
   101  C          0.27471000       0.13623000       0.29302000
   102  C          0.22529000       0.86377000       0.79302000
   103  C          0.72529000       0.63623000       0.20698000
   104  C          0.77471000       0.36377000       0.70698000
   105  O          0.35647000       0.33624180       0.29755160
   106  O          0.14353000       0.66375820       0.79755160
   107  O          0.64353000       0.83624180       0.20244840
   108  O          0.85647000       0.16375820       0.70244840
   109  H          0.25170000       0.29890000       0.29160000
   110  H          0.24830000       0.70110000       0.79160000
   111  H          0.74830000       0.79890000       0.20840000
   112  H          0.75170000       0.20110000       0.70840000
   113  F          0.00156000       0.27669160       0.38961140
   114  F          0.49844000       0.72330840       0.88961140
   115  F         -0.00156000       0.77669160       0.11038860
   116  F          0.50156000       0.22330840       0.61038860
   117  F          0.02656000       0.30438170       0.52814140
   118  F          0.47344000       0.69561830       0.02814140
   119  F         -0.02656000       0.80438170       0.97185860
   120  F          0.52656000       0.19561830       0.47185860
   121  F          0.40576000       0.39026170       0.57947140
   122  F          0.09424000       0.60973830       0.07947140
   123  F          0.59424000       0.89026170       0.92052860
   124  F          0.90576000       0.10973830       0.42052860
   125  F          0.75716000       0.44838170       0.49034160
   126  F          0.74284000       0.55161830       0.99034160
   127  F          0.24284000       0.94838170       0.00965840
   128  F          0.25716000       0.05161830       0.50965840
   129  F          0.73206000       0.42077170       0.35152160
   130  F          0.76794000       0.57922830       0.85152160
   131  F          0.26794000       0.92077170       0.14847840
   132  F          0.23206000       0.07922830       0.64847840
   133  C          0.36611000       0.34873000       0.36832000
   134  C          0.13389000       0.65127000       0.86832000
   135  C          0.63389000       0.84873000       0.13168000
   136  C          0.86611000       0.15127000       0.63168000
   137  C          0.18851000       0.32002000       0.41403000
   138  C          0.31149000       0.67998000       0.91403000
   139  C          0.81149000       0.82002000       0.08597000
   140  C          0.68851000       0.17998000       0.58597000
   141  C          0.20131000       0.33403000       0.48512000
   142  C          0.29869000       0.66597000       0.98512000
   143  C          0.79869000       0.83403000       0.01488000
   144  C          0.70131000       0.16597000       0.51488000
   145  C          0.39181100       0.37653000       0.51003000
   146  C          0.10818900       0.62347000       0.01003000
   147  C          0.60818900       0.87653000       0.98997000
   148  C          0.89181100       0.12347000       0.48997000
   149  C          0.56991000       0.40633000       0.46593000
   150  C          0.93009000       0.59367000       0.96593000
   151  C          0.43009000       0.90633000       0.03407000
   152  C          0.06991000       0.09367000       0.53407000
   153  C          0.55311000       0.39243000       0.39423000
   154  C          0.94689000       0.60757000       0.89423000
   155  C          0.44689000       0.89243000       0.10577000
   156  C          0.05311000       0.10757000       0.60577000
