data_UCAYED
_symmetry_space_group_name_H-M    'P1'
_symmetry_Int_Tables_number       1
loop_
_symmetry_equiv_pos_site_id
_symmetry_equiv_pos_as_xyz
1 x,y,z
_cell_length_a                   21.3004
_cell_length_b                   5.769712
_cell_length_c                   16.7963
_cell_angle_alpha                90.0
_cell_angle_beta                 114.683
_cell_angle_gamma                90.0
loop_
_atom_site_label
_atom_site_type_symbol
_atom_site_fract_x
_atom_site_fract_y
_atom_site_fract_z
     1  F          0.17262000       0.92521100       0.45833000
     2  F          0.17262000       0.07478900       0.95833000
     3  F          0.67262000       0.42521100       0.45833000
     4  F          0.67262000       0.57478900       0.95833000
     5  F          0.11622000       0.30401100       0.49904000
     6  F          0.11622000       0.69598900      -0.00096000
     7  F          0.61622000       0.80401100       0.49904000
     8  F          0.61622000       0.19598900      -0.00096000
     9  F          0.20093000       0.05871200       0.79123000
    10  F          0.20093000       0.94128800       0.29123000
    11  F          0.70093000       0.55871200       0.79123000
    12  F          0.70093000       0.44128800       0.29123000
    13  F          0.25662000       0.67751100       0.75184000
    14  F          0.25662000       0.32248900       0.25184000
    15  F          0.75662000       0.17751100       0.75184000
    16  F          0.75662000       0.82248900       0.25184000
    17  C          0.22274000       0.82851700       0.68935000
    18  C          0.22274000       0.17148300       0.18935000
    19  C          0.72274000       0.32851700       0.68935000
    20  C          0.72274000       0.67148300       0.18935000
    21  C          0.15114000       0.14521800       0.56205000
    22  C          0.15114000       0.85478200       0.06205000
    23  C          0.65114000       0.64521800       0.56205000
    24  C          0.65114000       0.35478200       0.06205000
    25  C          0.19444000       0.01920000       0.70845000
    26  C          0.19444000      -0.01920000       0.20845000
    27  C          0.69444000       0.51920000       0.70845000
    28  C          0.69444000       0.48080000       0.20845000
    29  O          0.24713000       0.60341400       0.58834000
    30  O          0.24713000       0.39658600       0.08834000
    31  O          0.74713000       0.10341400       0.58834000
    32  O          0.74713000       0.89658600       0.08834000
    33  H          0.24310000       0.60750000       0.53760000
    34  H          0.24310000       0.39250000       0.03760000
    35  H          0.74310000       0.10750000       0.53760000
    36  H          0.74310000       0.89250000       0.03760000
    37  F          0.12913000       0.37101200       0.66344000
    38  F          0.12913000       0.62898800       0.16344000
    39  F          0.62913000       0.87101200       0.66344000
    40  F          0.62913000       0.12898800       0.16344000
    41  C          0.18043000       0.95641700       0.54174000
    42  C          0.18043000       0.04358300       0.04174000
    43  C          0.68043000       0.45641700       0.54174000
    44  C          0.68043000       0.54358300       0.04174000
    45  C          0.15814000       0.17581800       0.64477000
    46  C          0.15814000       0.82418200       0.14477000
    47  C          0.65814000       0.67581800       0.64477000
    48  C          0.65814000       0.32418200       0.14477000
    49  C          0.21703000       0.78771800       0.60385000
    50  C          0.21703000       0.21228200       0.10385000
    51  C          0.71703000       0.28771800       0.60385000
    52  C          0.71703000       0.71228200       0.10385000
    53  C          0.04224000       0.35561900       0.28835000
    54  C          0.04224000       0.64438100       0.78835000
    55  C          0.54224000       0.85561900       0.28835000
    56  C          0.54224000       0.14438100       0.78835000
    57  C          0.01164000       0.16620000       0.24166000
    58  C          0.01164000       0.83380000       0.74166000
    59  C          0.51164000       0.66620000       0.24166000
    60  C          0.51164000       0.33380000       0.74166000
    61  O          0.83452000       0.25371200       0.21074000
    62  O          0.83452000       0.74628800       0.71074000
    63  O          0.33452000       0.75371200       0.21074000
    64  O          0.33452000       0.24628800       0.71074000
    65  H          0.82170000       0.13430000       0.18190000
    66  H          0.82170000       0.86570000       0.68190000
    67  H          0.32170000       0.63430000       0.18190000
    68  H          0.32170000       0.36570000       0.68190000
    69  F          0.89513000       0.62761100       0.30304000
    70  F          0.89513000       0.37238900       0.80304000
    71  F          0.39513000       0.12761100       0.30304000
    72  F          0.39513000       0.87238900       0.80304000
    73  C          0.94074000       0.12351700       0.21535000
    74  C          0.94074000       0.87648300       0.71535000
    75  C          0.44074000       0.62351700       0.21535000
    76  C          0.44074000       0.37648300       0.71535000
    77  F          0.91193000       0.93018900       0.16794000
    78  F          0.91193000       0.06981100       0.66794000
    79  F          0.41193000       0.43018900       0.16794000
    80  F          0.41193000       0.56981100       0.66794000
    81  C          0.90303000       0.28161600       0.23565000
    82  C          0.90303000       0.71838400       0.73565000
    83  C          0.40303000       0.78161600       0.23565000
    84  C          0.40303000       0.21838400       0.73565000
    85  F          0.04803000       0.00451500       0.21814000
    86  F          0.04803000      -0.00451500       0.71814000
    87  F          0.54803000       0.50451500       0.21814000
    88  F          0.54803000       0.49548500       0.71814000
    89  F          0.03163000       0.69801400       0.35574000
    90  F          0.03163000       0.30198600       0.85574000
    91  F          0.53163000       0.19801400       0.35574000
    92  F          0.53163000       0.80198600       0.85574000
    93  C          0.00164000       0.51511900       0.31075000
    94  C          0.00164000       0.48488100       0.81075000
    95  C          0.50164000       0.01511900       0.31075000
    96  C          0.50164000      -0.01511900       0.81075000
    97  C          0.93394000       0.47391800       0.28285000
    98  C          0.93394000       0.52608200       0.78285000
    99  C          0.43394000       0.97391800       0.28285000
   100  C          0.43394000       0.02608200       0.78285000
   101  F          0.11073000       0.39011700       0.31025000
   102  F          0.11073000       0.60988300       0.81025000
   103  F          0.61073000       0.89011700       0.31025000
   104  F          0.61073000       0.10988300       0.81025000
   105  F          0.47883000       0.62621100       0.44704000
   106  F          0.47883000       0.37378900       0.94704000
   107  F          0.97883000       0.12621100       0.44704000
   108  F          0.97883000       0.87378900       0.94704000
   109  F          0.53452000       0.23821200       0.53963000
   110  F          0.53452000       0.76178800       0.03963000
   111  F          0.03452000       0.73821200       0.53963000
   112  F          0.03452000       0.26178800       0.03963000
   113  C          0.46733000       0.28461800       0.51265000
   114  C          0.46733000       0.71538200       0.01265000
   115  C          0.96733000       0.78461800       0.51265000
   116  C          0.96733000       0.21538200       0.01265000
   117  F          0.45263000       0.93948800       0.57754000
   118  F          0.45263000       0.06051200       0.07754000
   119  F          0.95263000       0.43948800       0.57754000
   120  F          0.95263000       0.56051200       0.07754000
   121  F          0.31793000       0.02641300       0.52494000
   122  F          0.31793000       0.97358700       0.02494000
   123  F          0.81793000       0.52641300       0.52494000
   124  F          0.81793000       0.47358700       0.02494000
   125  F          0.34343000       0.72541200       0.39423000
   126  F          0.34343000       0.27458800       0.89423000
   127  F          0.84343000       0.22541200       0.39423000
   128  F          0.84343000       0.77458800       0.89423000
   129  C          0.36864000       0.52320000       0.44125000
   130  C          0.36864000       0.47680000       0.94125000
   131  C          0.86864000       0.02320000       0.44125000
   132  C          0.86864000      -0.02320000       0.94125000
   133  C          0.43893000       0.47591700       0.46705000
   134  C          0.43893000       0.52408300       0.96705000
   135  C          0.93893000      -0.02408300       0.46705000
   136  C          0.93893000       0.02408300       0.96705000
   137  O          0.25873000       0.42591700       0.43574000
   138  O          0.25873000       0.57408300       0.93574000
   139  O          0.75873000       0.92591700       0.43574000
   140  O          0.75873000       0.07408300       0.93574000
   141  H          0.23460000       0.33490000       0.39770000
   142  H          0.23460000       0.66510000       0.89770000
   143  H          0.73460000       0.83490000       0.39770000
   144  H          0.73460000       0.16510000       0.89770000
   145  C          0.32704000       0.37820000       0.45825000
   146  C          0.32704000       0.62180000       0.95825000
   147  C          0.82704000       0.87820000       0.45825000
   148  C          0.82704000       0.12180000       0.95825000
   149  C          0.35695000       0.17721900       0.50585000
   150  C          0.35695000       0.82278100       0.00585000
   151  C          0.85695000       0.67721900       0.50585000
   152  C          0.85695000       0.32278100       0.00585000
   153  C          0.42494000       0.13071900       0.53255000
   154  C          0.42494000       0.86928100       0.03255000
   155  C          0.92494000       0.63071900       0.53255000
   156  C          0.92494000       0.36928100       0.03255000
