data_UCAYED01
_symmetry_space_group_name_H-M    'P1'
_symmetry_Int_Tables_number       1
loop_
_symmetry_equiv_pos_site_id
_symmetry_equiv_pos_as_xyz
1 x,y,z
_cell_length_a                   13.0733
_cell_length_b                   4.92951
_cell_length_c                   10.1632
_cell_angle_alpha                90.0
_cell_angle_beta                 107.313
_cell_angle_gamma                90.0
loop_
_atom_site_label
_atom_site_type_symbol
_atom_site_fract_x
_atom_site_fract_y
_atom_site_fract_z
     1  C          0.14718150       0.49614000       0.39122000
     2  C          0.85281850      -0.00386000       0.10878000
     3  C          0.85281850       0.50386000       0.60878000
     4  C          0.14718150       0.00386000       0.89122000
     5  C          0.21915160       0.30904000       0.37012000
     6  C          0.78084840       0.80904000       0.12988000
     7  C          0.78084840       0.69096000       0.62988000
     8  C          0.21915160       0.19096000       0.87012000
     9  C          0.32350160       0.30214000       0.45122000
    10  C          0.67649840       0.80214000       0.04878000
    11  C          0.67649840       0.69786000       0.54878000
    12  C          0.32350160       0.19786000       0.95122000
    13  C          0.35937160       0.48605000       0.55662000
    14  C          0.64062840      -0.01395000       0.94338000
    15  C          0.64062840       0.51395000       0.44338000
    16  C          0.35937160       0.01395000       0.05662000
    17  C          0.28886180       0.67424000       0.57962000
    18  C          0.71113820       0.17424000       0.92038000
    19  C          0.71113820       0.32576000       0.42038000
    20  C          0.28886180       0.82576000       0.07962000
    21  C          0.18462170       0.67864000       0.49742000
    22  C          0.81537830       0.17864000       0.00258000
    23  C          0.81537830       0.32136000       0.50258000
    24  C          0.18462170       0.82136000      -0.00258000
    25  O          0.04343110       0.51093000       0.31175180
    26  O          0.95656890       0.01093000       0.18824820
    27  O          0.95656890       0.48907000       0.68824820
    28  O          0.04343110      -0.01093000       0.81175180
    29  H          0.01860000       0.33710000       0.27000000
    30  H          0.98140000       0.83710000       0.23000000
    31  H          0.98140000       0.66290000       0.73000000
    32  H          0.01860000       0.16290000       0.77000000
    33  F          0.18497110       0.12873000       0.26717150
    34  F          0.81502890       0.62873000       0.23282850
    35  F          0.81502890       0.87127000       0.73282850
    36  F          0.18497110       0.37127000       0.76717150
    37  F          0.39042110       0.11563000       0.42774190
    38  F          0.60957890       0.61563000       0.07225810
    39  F          0.60957890       0.88437000       0.57225810
    40  F          0.39042110       0.38437000       0.92774190
    41  F          0.46067100       0.47824000       0.63678170
    42  F          0.53932900      -0.02176000       0.86321830
    43  F          0.53932900       0.52176000       0.36321830
    44  F          0.46067100       0.02176000       0.13678170
    45  F          0.32239120       0.85513000       0.68205150
    46  F          0.67760880       0.35513000       0.81794850
    47  F          0.67760880       0.14487000       0.31794850
    48  F          0.32239120       0.64487000       0.18205150
    49  F          0.11655110       0.86453000       0.52145170
    50  F          0.88344890       0.36453000       0.97854830
    51  F          0.88344890       0.13547000       0.47854830
    52  F          0.11655110       0.63547000       0.02145170
