data_UCECAG02
_symmetry_space_group_name_H-M    'P1'
_symmetry_Int_Tables_number       1
loop_
_symmetry_equiv_pos_site_id
_symmetry_equiv_pos_as_xyz
1 x,y,z
_cell_length_a                   8.161918
_cell_length_b                   3.66468
_cell_length_c                   13.2783
_cell_angle_alpha                90.0
_cell_angle_beta                 91.3103
_cell_angle_gamma                90.0
loop_
_atom_site_label
_atom_site_type_symbol
_atom_site_fract_x
_atom_site_fract_y
_atom_site_fract_z
     1  C          0.83573000       0.80477000       0.71162000
     2  C          0.16427000       0.30477000       0.28838000
     3  C          0.71353000       0.65197000       0.64662000
     4  C          0.28647000       0.15197000       0.35338000
     5  C          0.56383000       0.53447000       0.68156190
     6  C          0.43617000       0.03447000       0.31843810
     7  C          0.53203000       0.56516000       0.78082000
     8  C          0.46797000       0.06516000       0.21918000
     9  C          0.64673000       0.70658000       0.84942000
    10  C          0.35327000       0.20658000       0.15058000
    11  C          0.79373000       0.82017000       0.81472000
    12  C          0.20627000       0.32017000       0.18528000
    13  Cl         0.93843700      -0.00733830       0.89833400
    14  Cl         0.06156300       0.49266170       0.10166600
    15  N          0.98093000       0.92687000       0.68336190
    16  N          0.01907000       0.42687000       0.31663810
    17  N          0.74093000       0.60386000       0.54078170
    18  N          0.25907000       0.10386000       0.45921830
    19  N          0.37603000       0.43957000       0.81747160
    20  N          0.62397000       0.93957000       0.18252840
    21  O          0.86202000       0.74956000       0.50430150
    22  O          0.13798000       0.24956000       0.49569850
    23  O          0.64512000       0.42016000       0.49102140
    24  O          0.35488000       0.92016000       0.50897860
    25  O          0.28002000       0.29697000       0.75642160
    26  O          0.71998000       0.79697000       0.24357840
    27  O          0.34762000       0.47369000       0.90674140
    28  O          0.65238000      -0.02631000       0.09325860
    29  H          0.04830000      -0.00389000       0.73120000
    30  H          0.95170000       0.49611000       0.26880000
    31  H          0.00640000       0.91110000       0.61920000
    32  H         -0.00640000       0.41110000       0.38080000
    33  H          0.48600000       0.43550000       0.63720000
    34  H          0.51400000       0.93550000       0.36280000
    35  H          0.62330000       0.72300000       0.91750000
    36  H          0.37670000       0.22300000       0.08250000
