data_UCECAG03
_symmetry_space_group_name_H-M    'P1'
_symmetry_Int_Tables_number       1
loop_
_symmetry_equiv_pos_site_id
_symmetry_equiv_pos_as_xyz
1 x,y,z
_cell_length_a                   7.946512
_cell_length_b                   8.9173
_cell_length_c                   12.9804
_cell_angle_alpha                89.353
_cell_angle_beta                 85.57519
_cell_angle_gamma                63.97815
loop_
_atom_site_label
_atom_site_type_symbol
_atom_site_fract_x
_atom_site_fract_y
_atom_site_fract_z
     1  C          0.01123000       0.74053000       0.00577160
     2  C          0.98877000       0.25947000      -0.00577160
     3  C          0.92723000       0.75653000       0.10887160
     4  C          0.07277000       0.24347000       0.89112840
     5  C          0.76753000       0.89113000       0.14401170
     6  C          0.23247000       0.10887000       0.85598830
     7  C          0.67813000       0.01803000       0.07722170
     8  C          0.32187000       0.98197000       0.92277830
     9  C          0.74823000       0.01083000       0.97723830
    10  C          0.25177000      -0.01083000       0.02276170
    11  C          0.91133000       0.87473000       0.94247850
    12  C          0.08867000       0.12527000       0.05752150
    13  Cl         0.03881100       0.59752900       0.19136500
    14  Cl         0.96118900       0.40247100       0.80863500
    15  N          0.17073000       0.60763000       0.97798000
    16  N          0.82927000       0.39237000       0.02202000
    17  N          0.50653000       0.16122000       0.11374170
    18  N          0.49347000       0.83878000       0.88625830
    19  N          0.98013000       0.87823000       0.83606850
    20  N          0.01987000       0.12177000       0.16393150
    21  O          0.44533000       0.16342000       0.20298160
    22  O          0.55467000       0.83658000       0.79701840
    23  O          0.43003000       0.27082000       0.05310160
    24  O          0.56997000       0.72918000       0.94689840
    25  O          0.89013000      -0.00477000       0.78429850
    26  O          0.10987000       0.00477000       0.21570150
    27  O          0.13033000       0.76693000       0.80359860
    28  O          0.86967000       0.23307000       0.19640140
    29  H          0.21940000       0.52940000       0.02820000
    30  H          0.78060000       0.47060000       0.97180000
    31  H          0.21640000       0.60440000       0.92170000
    32  H          0.78360000       0.39560000       0.07830000
    33  H          0.71830000       0.89830000       0.21420000
    34  H          0.28170000       0.10170000       0.78580000
    35  H          0.68730000       0.09430000       0.93728200
    36  H          0.31270000       0.90570000       0.06271800
    37  C          0.31353000       0.58062000       0.41406150
    38  C          0.68647000       0.41938000       0.58593850
    39  C          0.22733000       0.65213000       0.51302150
    40  C          0.77267000       0.34787000       0.48697850
    41  C          0.20723000       0.80253000       0.54684170
    42  C          0.79277000       0.19747000       0.45315830
    43  C          0.27303000       0.89222000       0.48204160
    44  C          0.72697000       0.10778000       0.51795840
    45  C          0.35903000       0.83263000       0.38586170
    46  C          0.64097000       0.16737000       0.61413830
    47  C          0.37883000       0.67892000       0.35329150
    48  C          0.62117000       0.32108000       0.64670850
    49  Cl         0.14781900       0.53674800       0.59309400
    50  Cl         0.85218100       0.46325200       0.40690600
    51  N          0.32933000       0.43202000       0.38607190
    52  N          0.67067000       0.56798000       0.61392810
    53  N          0.25373000       0.05352000       0.51656160
    54  N          0.74627000       0.94648000       0.48343840
    55  N          0.47513000       0.62072000       0.25145140
    56  N          0.52487000       0.37928000       0.74854860
    57  O          0.18213000       0.10432000       0.60296150
    58  O          0.81787000       0.89568000       0.39703850
    59  O          0.30953000       0.13122000       0.45699160
    60  O          0.69047000       0.86878000       0.54300840
    61  O          0.53463000       0.70722000       0.20318140
    62  O          0.46537000       0.29278000       0.79681860
    63  O          0.49543000       0.48692000       0.21737150
    64  O          0.50457000       0.51308000       0.78262850
    65  H          0.29040000       0.38330000       0.42720000
    66  H          0.70960000       0.61670000       0.57280000
    67  H          0.38540000       0.38840000       0.32620000
    68  H          0.61460000       0.61160000       0.67380000
    69  H          0.15230000       0.84130000       0.61061800
    70  H          0.84770000       0.15870000       0.38938200
    71  H          0.40830000       0.89030000       0.34251900
    72  H          0.59170000       0.10970000       0.65748100
