data_UCECAG
_symmetry_space_group_name_H-M    'P1'
_symmetry_Int_Tables_number       1
loop_
_symmetry_equiv_pos_site_id
_symmetry_equiv_pos_as_xyz
1 x,y,z
_cell_length_a                   11.3252
_cell_length_b                   18.2504
_cell_length_c                   7.9094
_cell_angle_alpha                90.0
_cell_angle_beta                 90.382
_cell_angle_gamma                90.0
loop_
_atom_site_label
_atom_site_type_symbol
_atom_site_fract_x
_atom_site_fract_y
_atom_site_fract_z
     1  N          0.40742000       0.50681000       0.16833000
     2  N          0.59258000       0.00681000       0.33167000
     3  N          0.59258000       0.49319000       0.83167000
     4  N          0.40742000      -0.00681000       0.66833000
     5  C          0.45632000       0.57241000       0.19363000
     6  C          0.54368000       0.07241000       0.30637000
     7  C          0.54368000       0.42759000       0.80637000
     8  C          0.45632000       0.92759000       0.69363000
     9  C          0.40622000       0.63631000       0.11854000
    10  C          0.59378000       0.13631000       0.38146000
    11  C          0.59378000       0.36369000       0.88146000
    12  C          0.40622000       0.86369000       0.61854000
    13  C          0.44812000       0.70521000       0.14624000
    14  C          0.55188000       0.20521000       0.35376000
    15  C          0.55188000       0.29479000       0.85376000
    16  C          0.44812000       0.79479000       0.64624000
    17  Cl         0.28281000       0.62381000      -0.00981000
    18  Cl         0.71719000       0.12381000       0.50981000
    19  Cl         0.71719000       0.37619000       0.00981000
    20  Cl         0.28281000       0.87619000       0.49019000
    21  C          0.54722000       0.71431000       0.24954000
    22  C          0.45278000       0.21431000       0.25046000
    23  C          0.45278000       0.28569000       0.75046000
    24  C          0.54722000       0.78569000       0.74954000
    25  C          0.60362000       0.65541000       0.32013000
    26  C          0.39638000       0.15541000       0.17987000
    27  C          0.39638000       0.34459000       0.67987000
    28  C          0.60362000       0.84459000       0.82013000
    29  N          0.59162000       0.78771000       0.28253000
    30  N          0.40838000       0.28771000       0.21747000
    31  N          0.40838000       0.21229000       0.71747000
    32  N          0.59162000       0.71229000       0.78253000
    33  O          0.54152000       0.83921000       0.21334000
    34  O          0.45848000       0.33921000       0.28666000
    35  O          0.45848000       0.16079000       0.78666000
    36  O          0.54152000       0.66079000       0.71334000
    37  O          0.67562000       0.79491000       0.37883000
    38  O          0.32438000       0.29491000       0.12117000
    39  O          0.32438000       0.20509000       0.62117000
    40  O          0.67562000       0.70509000       0.87883000
    41  C          0.55952000       0.58601000       0.29194000
    42  C          0.44048000       0.08601000       0.20806000
    43  C          0.44048000       0.41399000       0.70806000
    44  C          0.55952000       0.91399000       0.79194000
    45  N          0.62442000       0.52601000       0.37143000
    46  N          0.37558000       0.02601000       0.12857000
    47  N          0.37558000       0.47399000       0.62857000
    48  N          0.62442000       0.97399000       0.87143000
    49  O          0.71842000       0.54061000       0.44033000
    50  O          0.28158000       0.04061000       0.05967000
    51  O          0.28158000       0.45939000       0.55967000
    52  O          0.71842000       0.95939000       0.94033000
    53  O          0.58382000       0.46501000       0.36644000
    54  O          0.41618000       0.96501000       0.13356000
    55  O          0.41618000       0.53499000       0.63356000
    56  O          0.58382000       0.03499000       0.86644000
    57  H          0.34222000       0.50241000       0.10300000
    58  H          0.65778000       0.00241000       0.39700000
    59  H          0.65778000       0.49759000       0.89700000
    60  H          0.34222000      -0.00241000       0.60300000
    61  H          0.43982000       0.46681000       0.21643000
    62  H          0.56018000       0.96681000       0.28357000
    63  H          0.56018000       0.53319000       0.78357000
    64  H          0.43982000       0.03319000       0.71643000
    65  H          0.41052000       0.74681000       0.09474000
    66  H          0.58948000       0.24681000       0.40526000
    67  H          0.58948000       0.25319000       0.90526000
    68  H          0.41052000       0.75319000       0.59474000
    69  H          0.67282000       0.66241000       0.38923000
    70  H          0.32718000       0.16241000       0.11077000
    71  H          0.32718000       0.33759000       0.61077000
    72  H          0.67282000       0.83759000       0.88923000
    73  N          0.09012000       0.97101000       0.83607000
    74  N          0.90988000       0.47101000       0.66393000
    75  N          0.90988000       0.02899000       0.16393000
    76  N          0.09012000       0.52899000       0.33607000
    77  C          0.04732000       0.90521000       0.79706000
    78  C          0.95268000       0.40521000       0.70294000
    79  C          0.95268000       0.09479000       0.20294000
    80  C          0.04732000       0.59479000       0.29706000
    81  C          0.10500000       0.84062000       0.86076000
    82  C          0.89500000       0.34062000       0.63924000
    83  C          0.89500000       0.15938000       0.13924000
    84  C          0.10500000       0.65938000       0.36076000
    85  C          0.06423000       0.77172000       0.82516000
    86  C          0.93577000       0.27172000       0.67484000
    87  C          0.93577000       0.22828000       0.17484000
    88  C          0.06423000       0.72828000       0.32516000
    89  Cl         0.22581000       0.85261000      -0.00991000
    90  Cl         0.77419000       0.35261000       0.50991000
    91  Cl         0.77419000       0.14739000       0.00991000
    92  Cl         0.22581000       0.64739000       0.49009000
    93  C          0.96428000       0.76281000       0.72276000
    94  C          0.03572000       0.26281000       0.77724000
    95  C          0.03572000       0.23719000       0.27724000
    96  C          0.96428000       0.73719000       0.22276000
    97  C          0.90558000       0.82191000       0.65796000
    98  C          0.09442000       0.32191000       0.84204000
    99  C          0.09442000       0.17809000       0.34204000
   100  C          0.90558000       0.67809000       0.15796000
   101  N          0.92258000       0.68931000       0.68467000
   102  N          0.07742000       0.18931000       0.81533000
   103  N          0.07742000       0.31069000       0.31533000
   104  N          0.92258000       0.81069000       0.18467000
   105  O          0.97198000       0.63791000       0.75467000
   106  O          0.02802000       0.13791000       0.74533000
   107  O          0.02802000       0.36209000       0.24533000
   108  O          0.97198000       0.86209000       0.25467000
   109  O          0.84098000       0.68201000       0.58467000
   110  O          0.15902000       0.18201000       0.91533000
   111  O          0.15902000       0.31799000       0.41533000
   112  O          0.84098000       0.81799000       0.08467000
   113  C          0.94578000       0.89161000       0.69456000
   114  C          0.05422000       0.39161000       0.80544000
   115  C          0.05422000       0.10839000       0.30544000
   116  C          0.94578000       0.60839000       0.19456000
   117  N          0.87818000       0.95181000       0.62177000
   118  N          0.12182000       0.45181000       0.87823000
   119  N          0.12182000       0.04819000       0.37823000
   120  N          0.87818000       0.54819000       0.12177000
   121  O          0.78958000       0.93691000       0.54076000
   122  O          0.21042000       0.43691000       0.95924000
   123  O          0.21042000       0.06309000       0.45924000
   124  O          0.78958000       0.56309000       0.04076000
   125  O          0.91228000       0.01411000       0.64486000
   126  O          0.08772000       0.51411000       0.85514000
   127  O          0.08772000       0.98589000       0.35514000
   128  O          0.91228000       0.48589000       0.14486000
   129  H          0.15482000       0.97521000       0.90187000
   130  H          0.84518000       0.47521000       0.59813000
   131  H          0.84518000       0.02479000       0.09813000
   132  H          0.15482000       0.52479000       0.40187000
   133  H          0.05392000       0.01151000       0.79627000
   134  H          0.94608000       0.51151000       0.70373000
   135  H          0.94608000       0.98849000       0.20373000
   136  H          0.05392000       0.48849000       0.29627000
   137  H          0.10523000       0.72982000       0.86956000
   138  H          0.89477000       0.22982000       0.63044000
   139  H          0.89477000       0.27018000       0.13044000
   140  H          0.10523000       0.77018000       0.36956000
   141  H          0.83728000       0.81501000       0.58716000
   142  H          0.16272000       0.31501000       0.91284000
   143  H          0.16272000       0.18499000       0.41284000
   144  H          0.83728000       0.68499000       0.08716000
