data_UHULEQ02
_symmetry_space_group_name_H-M    'P1'
_symmetry_Int_Tables_number       1
loop_
_symmetry_equiv_pos_site_id
_symmetry_equiv_pos_as_xyz
1 x,y,z
_cell_length_a                   7.00664
_cell_length_b                   15.22918
_cell_length_c                   17.49039
_cell_angle_alpha                90.0
_cell_angle_beta                 90.0
_cell_angle_gamma                90.0
loop_
_atom_site_label
_atom_site_type_symbol
_atom_site_fract_x
_atom_site_fract_y
_atom_site_fract_z
     1  O          0.11562000       0.83002110       0.29918900
     2  O          0.38438000       0.16997890       0.79918900
     3  O          0.61562000       0.66997890       0.70081100
     4  O          0.88438000       0.33002110       0.20081100
     5  O          0.36703000       0.92356110       0.31811900
     6  O          0.13297000       0.07643890       0.81811900
     7  O          0.86703000       0.57643890       0.68188100
     8  O          0.63297000       0.42356110       0.18188100
     9  N          0.91287000       0.75932130       0.11417110
    10  N          0.58713000       0.24067870       0.61417110
    11  N          0.41287000       0.74067870       0.88582890
    12  N          0.08713000       0.25932130       0.38582890
    13  O          0.16803000       0.56459110       0.06977100
    14  O          0.33197000       0.43540890       0.56977100
    15  O          0.66803000       0.93540890       0.93022900
    16  O          0.83197000       0.06459110       0.43022900
    17  O          0.08802000       0.60791110       0.18848100
    18  O          0.41198000       0.39208890       0.68848100
    19  O          0.58802000       0.89208890       0.81151900
    20  O          0.91198000       0.10791110       0.31151900
    21  O          0.22852000       0.78765110       0.11164100
    22  O          0.27148000       0.21234890       0.61164100
    23  O          0.72852000       0.71234890       0.88835900
    24  O          0.77148000       0.28765110       0.38835900
    25  C          0.23304000       0.89660180       0.28001150
    26  C          0.26696000       0.10339820       0.78001150
    27  C          0.73304000       0.60339820       0.71998850
    28  C          0.76696000       0.39660180       0.21998850
    29  C          0.07234000       0.61516160       0.12031160
    30  C          0.42766000       0.38483840       0.62031160
    31  C          0.57234000       0.88483840       0.87968840
    32  C          0.92766000       0.11516160       0.37968840
    33  N          0.18323000       0.93071130       0.21135110
    34  N          0.31677000       0.06928870       0.71135110
    35  N          0.68323000       0.56928870       0.78864890
    36  N          0.81677000       0.43071130       0.28864890
    37  C         -0.01644000       0.71531180       0.36790160
    38  C          0.51644000       0.28468820       0.86790160
    39  C          0.48356000       0.78468820       0.63209840
    40  C          0.01644000       0.21531180       0.13209840
    41  H          0.86730000       0.75080000       0.37140000
    42  H          0.63270000       0.24920000       0.87140000
    43  H          0.36730000       0.74920000       0.62860000
    44  H          0.13270000       0.25080000       0.12860000
    45  H         -0.00870000       0.67610000       0.41220000
    46  H          0.50870000       0.32390000       0.91220000
    47  H          0.49130000       0.82390000       0.58780000
    48  H          0.00870000       0.17610000       0.08780000
    49  H         -0.01960000       0.68030000       0.32090000
    50  H          0.51960000       0.31970000       0.82090000
    51  H          0.48040000       0.81970000       0.67910000
    52  H          0.01960000       0.18030000       0.17910000
    53  C          0.23374000      -0.00070810       0.09439150
    54  C          0.26626000       0.00070810       0.59439150
    55  C          0.73374000       0.50070810       0.90560850
    56  C          0.76626000       0.49929190       0.40560850
    57  H          0.31220000       0.95620000       0.06590000
    58  H          0.18780000       0.04380000       0.56590000
    59  H          0.81220000       0.54380000       0.93410000
    60  H          0.68780000       0.45620000       0.43410000
    61  H          0.24540000       0.05750000       0.06970000
    62  H          0.25460000       0.94250000       0.56970000
    63  H          0.74540000       0.44250000       0.93030000
    64  H          0.75460000       0.55750000       0.43030000
    65  C          0.02374000       0.90059170       0.16368140
    66  C          0.47626000       0.09940830       0.66368140
    67  C          0.52374000       0.59940830       0.83631860
    68  C          0.97626000       0.40059170       0.33631860
    69  C          0.15544000       0.77479160       0.36671140
    70  C          0.34456000       0.22520840       0.86671140
    71  C          0.65544000       0.72520840       0.63328860
    72  C          0.84456000       0.27479160       0.13328860
    73  C          0.71226000       0.77819170       0.13255150
    74  C          0.78774000       0.22180830       0.63255150
    75  C          0.21226000       0.72180830       0.86744850
    76  C          0.28774000       0.27819170       0.36744850
    77  H          0.64970000       0.80010000       0.08480000
    78  H          0.85030000       0.19990000       0.58480000
    79  H          0.14970000       0.69990000       0.91520000
    80  H          0.35030000       0.30010000       0.41520000
    81  C          0.02664000       0.97021170       0.09871150
    82  C          0.47336000       0.02978830       0.59871150
    83  C          0.52664000       0.52978830       0.90128850
    84  C          0.97336000       0.47021170       0.40128850
    85  H         -0.01520000       0.94410000       0.04960000
    86  H          0.51520000       0.05590000       0.54960000
    87  H          0.48480000       0.55590000       0.95040000
    88  H          0.01520000       0.44410000       0.45040000
    89  H          0.94220000       0.02030000       0.11120000
    90  H          0.55780000       0.97970000       0.61120000
    91  H          0.44220000       0.47970000       0.88880000
    92  H          0.05780000       0.52030000       0.38880000
    93  C          0.93256000       0.67244170       0.07835150
    94  C          0.56744000       0.32755830       0.57835150
    95  C          0.43256000       0.82755830       0.92164850
    96  C          0.06744000       0.17244170       0.42164850
    97  H          0.96920000       0.67830000       0.02330000
    98  H          0.53080000       0.32170000       0.52330000
    99  H          0.46920000       0.82170000       0.97670000
   100  H          0.03080000       0.17830000       0.47670000
   101  C          0.06524000       0.81022160       0.12911140
   102  C          0.43476000       0.18977840       0.62911140
   103  C          0.56524000       0.68977840       0.87088860
   104  C          0.93476000       0.31022160       0.37088860
   105  C          0.69606000       0.84782170       0.19073150
   106  C          0.80394000       0.15217830       0.69073150
   107  C          0.19606000       0.65217830       0.80926850
   108  C          0.30394000       0.34782170       0.30926850
   109  H          0.58050000       0.85290000       0.21880000
   110  H          0.91950000       0.14710000       0.71880000
   111  H          0.08050000       0.64710000       0.78120000
   112  H          0.41950000       0.35290000       0.28120000
   113  C          0.29164000       0.00330160       0.17784150
   114  C          0.20836000      -0.00330160       0.67784150
   115  C          0.79164000       0.49669840       0.82215850
   116  C          0.70836000       0.50330160       0.32215850
   117  H          0.43070000      -0.00570000       0.18400000
   118  H          0.06930000       0.00570000       0.68400000
   119  H          0.93070000       0.50570000       0.81600000
   120  H          0.56930000       0.49430000       0.31600000
   121  H          0.25540000       0.06020000       0.20110000
   122  H          0.24460000       0.93980000       0.70110000
   123  H          0.75540000       0.43980000       0.79890000
   124  H          0.74460000       0.56020000       0.29890000
   125  C          0.83576000       0.90320170       0.20520140
   126  C          0.66424000       0.09679830       0.70520140
   127  C          0.33576000       0.59679830       0.79479860
   128  C          0.16424000       0.40320170       0.29479860
   129  H          0.81710000       0.94660000       0.24350000
   130  H          0.68290000       0.05340000       0.74350000
   131  H          0.31710000       0.55340000       0.75650000
   132  H          0.18290000       0.44660000       0.25650000
   133  C          0.29194000       0.49800180       0.10301160
   134  C          0.20806000       0.50199820       0.60301160
   135  C          0.79194000       0.00199820       0.89698840
   136  C          0.70806000      -0.00199820       0.39698840
   137  H          0.37830000       0.52560000       0.14000000
   138  H          0.12170000       0.47440000       0.64000000
   139  H          0.87830000       0.97440000       0.86000000
   140  H          0.62170000       0.02560000       0.36000000
   141  H          0.36680000       0.47000000       0.06250000
   142  H          0.13320000       0.53000000       0.56250000
   143  H          0.86680000       0.03000000       0.93750000
   144  H          0.63320000       0.97000000       0.43750000
   145  H          0.21410000       0.45360000       0.12900000
   146  H          0.28590000       0.54640000       0.62900000
   147  H          0.71410000       0.04640000       0.87100000
   148  H          0.78590000       0.95360000       0.37100000
   149  C          0.72816000       0.63363180       0.08615160
   150  C          0.77184000       0.36636820       0.58615160
   151  C          0.22816000       0.86636820       0.91384840
   152  C          0.27184000       0.13363180       0.41384840
   153  H          0.65710000       0.63900000       0.03740000
   154  H          0.84290000       0.36100000       0.53740000
   155  H          0.15710000       0.86100000       0.96260000
   156  H          0.34290000       0.13900000       0.46260000
   157  H          0.73330000       0.57100000       0.10110000
   158  H          0.76670000       0.42900000       0.60110000
   159  H          0.23330000       0.92900000       0.89890000
   160  H          0.26670000       0.07100000       0.39890000
   161  C          0.16345000       0.83039190       0.43902140
   162  C          0.33655000       0.16960810       0.93902140
   163  C          0.66345000       0.66960810       0.56097860
   164  C          0.83655000       0.33039190       0.06097860
   165  H          0.28120000       0.86510000       0.43920000
   166  H          0.21880000       0.13490000       0.93920000
   167  H          0.78120000       0.63490000       0.56080000
   168  H          0.71880000       0.36510000       0.06080000
   169  H          0.16110000       0.79200000       0.48400000
   170  H          0.33890000       0.20800000       0.98400000
   171  H          0.66110000       0.70800000       0.51600000
   172  H          0.83890000       0.29200000       0.01600000
   173  H          0.05310000       0.86990000       0.44040000
   174  H          0.44690000       0.13010000       0.94040000
   175  H          0.55310000       0.63010000       0.55960000
   176  H          0.94690000       0.36990000       0.05960000
   177  C          0.63536000       0.68862160       0.14847160
   178  C          0.86464000       0.31137840       0.64847160
   179  C          0.13536000       0.81137840       0.85152840
   180  C          0.36464000       0.18862160       0.35152840
   181  H          0.49450000       0.68740000       0.14430000
   182  H          0.00550000       0.31260000       0.64430000
   183  H         -0.00550000       0.81260000       0.85570000
   184  H          0.50550000       0.18740000       0.35570000
   185  H          0.67310000       0.66800000       0.20000000
   186  H          0.82690000       0.33200000       0.70000000
   187  H          0.17310000       0.83200000       0.80000000
   188  H          0.32690000       0.16800000       0.30000000
   189  C          0.33714000       0.72356180       0.35267160
   190  C          0.16286000       0.27643820       0.85267160
   191  C          0.83714000       0.77643820       0.64732840
   192  C          0.66286000       0.22356180       0.14732840
   193  H          0.32750000       0.69230000       0.30380000
   194  H          0.17250000       0.30770000       0.80380000
   195  H          0.82750000       0.80770000       0.69620000
   196  H          0.67250000       0.19230000       0.19620000
   197  H          0.35600000       0.68110000       0.39410000
   198  H          0.14400000       0.31890000       0.89410000
   199  H          0.85600000       0.81890000       0.60590000
   200  H          0.64400000       0.18110000       0.10590000
   201  H          0.44570000       0.76410000       0.35100000
   202  H          0.05430000       0.23590000       0.85100000
   203  H          0.94570000       0.73590000       0.64900000
   204  H          0.55430000       0.26410000       0.14900000
