data_UHULEQ01
_symmetry_space_group_name_H-M    'P1'
_symmetry_Int_Tables_number       1
loop_
_symmetry_equiv_pos_site_id
_symmetry_equiv_pos_as_xyz
1 x,y,z
_cell_length_a                   9.98356
_cell_length_b                   11.188812
_cell_length_c                   16.360316
_cell_angle_alpha                90.0
_cell_angle_beta                 90.0
_cell_angle_gamma                90.0
loop_
_atom_site_label
_atom_site_type_symbol
_atom_site_fract_x
_atom_site_fract_y
_atom_site_fract_z
     1  O          0.19831180       0.16910190       0.23629120
     2  O          0.30168820       0.83089810       0.73629120
     3  O          0.69831180       0.33089810       0.76370880
     4  O          0.80168820       0.66910190       0.26370880
     5  O          0.29712000       0.23632000       0.11903130
     6  O          0.20288000       0.76368000       0.61903130
     7  O          0.79712000       0.26368000       0.88096870
     8  O          0.70288000       0.73632000       0.38096870
     9  O          0.45607190       0.26402000       0.34651130
    10  O          0.04392810       0.73598000       0.84651130
    11  O          0.95607190       0.23598000       0.65348870
    12  O          0.54392810       0.76402000       0.15348870
    13  O          0.17492180       0.32192000       0.42946130
    14  O          0.32507820       0.67808000       0.92946130
    15  O          0.67492180       0.17808000       0.57053870
    16  O          0.82507820       0.82192000       0.07053870
    17  O          0.31487190       0.42012000       0.51300120
    18  O          0.18512810       0.57988000       0.01300120
    19  O          0.81487190       0.07988000       0.48699880
    20  O          0.68512810       0.92012000       0.98699880
    21  N          0.40902000       0.12052000       0.21057150
    22  N          0.09098000       0.87948000       0.71057150
    23  N          0.90902000       0.37948000       0.78942850
    24  N          0.59098000       0.62052000       0.28942850
    25  N          0.36722000       0.12822000       0.43192150
    26  N          0.13278000       0.87178000       0.93192150
    27  N          0.86722000       0.37178000       0.56807850
    28  N          0.63278000       0.62822000       0.06807850
    29  C          0.30073000       0.18213000       0.18342190
    30  C          0.19927000       0.81787000       0.68342190
    31  C          0.80073000       0.31787000       0.81657810
    32  C          0.69927000       0.68213000       0.31657810
    33  C          0.42083000       0.06633000       0.29189180
    34  C          0.07917000       0.93367000       0.79189180
    35  C          0.92083000       0.43367000       0.70810820
    36  C          0.57917000       0.56633000       0.20810820
    37  C          0.41533000       0.16233000       0.35867180
    38  C          0.08467000       0.83767000       0.85867180
    39  C          0.91533000       0.33767000       0.64132820
    40  C          0.58467000       0.66233000       0.14132820
    41  C          0.35253000       0.21443000       0.49891190
    42  C          0.14747000       0.78557000      -0.00108810
    43  C          0.85253000       0.28557000       0.50108810
    44  C          0.64747000       0.71443000       0.00108810
    45  H          0.44220000       0.23900000       0.52020000
    46  H          0.05780000       0.76100000       0.02020000
    47  H          0.94220000       0.26100000       0.47980000
    48  H          0.55780000       0.73900000       0.97980000
    49  C          0.27163000       0.32243000       0.47399180
    50  C          0.22837000       0.67757000       0.97399180
    51  C          0.77163000       0.17757000       0.52600820
    52  C          0.72837000       0.82243000       0.02600820
    53  C          0.23623000       0.52773000       0.49942000
    54  C          0.26377000       0.47227000      -0.00058000
    55  C          0.73623000       0.97227000       0.50058000
    56  C          0.76377000       0.02773000       0.00058000
    57  H          0.24160000       0.55050000       0.44170000
    58  H          0.25840000       0.44950000       0.94170000
    59  H          0.74160000       0.94950000       0.55830000
    60  H          0.75840000       0.05050000       0.05830000
    61  H          0.27150000       0.59260000       0.53330000
    62  H          0.22850000       0.40740000       0.03330000
    63  H          0.77150000       0.90740000       0.46670000
    64  H          0.72850000       0.09260000       0.96670000
    65  H          0.14260000       0.51240000       0.51410000
    66  H          0.35740000       0.48760000       0.01410000
    67  H          0.64260000      -0.01240000       0.48590000
    68  H          0.85740000       0.01240000       0.98590000
    69  C          0.27433000       0.14253000       0.56442000
    70  C          0.22567000       0.85747000       0.06442000
    71  C          0.77433000       0.35747000       0.43558000
    72  C          0.72567000       0.64253000       0.93558000
    73  H          0.33590000       0.10920000       0.60610000
    74  H          0.16410000       0.89080000       0.10610000
    75  H          0.83590000       0.39080000       0.39390000
    76  H          0.66410000       0.60920000       0.89390000
    77  H          0.20690000       0.19330000       0.59200000
    78  H          0.29310000       0.80670000       0.09200000
    79  H          0.70690000       0.30670000       0.40800000
    80  H          0.79310000       0.69330000       0.90800000
    81  C          0.20713000       0.04283000       0.51572000
    82  C          0.29287000       0.95717000       0.01572000
    83  C          0.70713000       0.45717000       0.48428000
    84  C          0.79287000       0.54283000       0.98428000
    85  H          0.18590000       0.97350000       0.55100000
    86  H          0.31410000       0.02650000       0.05100000
    87  H          0.68590000       0.52650000       0.44900000
    88  H          0.81410000       0.47350000       0.94900000
    89  H          0.12380000       0.07140000       0.48930000
    90  H          0.37620000       0.92860000       0.98930000
    91  H          0.62380000       0.42860000       0.51070000
    92  H          0.87620000       0.57140000       0.01070000
    93  C          0.31183000       0.01123000       0.45296190
    94  C          0.18817000      -0.01123000       0.95296190
    95  C          0.81183000       0.48877000       0.54703810
    96  C          0.68817000       0.51123000       0.04703810
    97  H          0.38370000       0.96530000       0.48160000
    98  H          0.11630000       0.03470000       0.98160000
    99  H          0.88370000       0.53470000       0.51840000
   100  H          0.61630000       0.46530000       0.01840000
   101  C          0.27333000       0.94197000       0.37882000
   102  C          0.22667000       0.05803000       0.87882000
   103  C          0.77333000       0.55803000       0.62118000
   104  C          0.72667000       0.44197000       0.12118000
   105  H          0.21270000       0.87710000       0.38440000
   106  H          0.28730000       0.12290000       0.88440000
   107  H          0.71270000       0.62290000       0.61560000
   108  H          0.78730000       0.37710000       0.11560000
   109  C          0.32053000       0.96767000       0.30602000
   110  C          0.17947000       0.03233000       0.80602000
   111  C          0.82053000       0.53233000       0.69398000
   112  C          0.67947000       0.46767000       0.19398000
   113  H          0.29030000       0.92250000       0.26050000
   114  H          0.20970000       0.07750000       0.76050000
   115  H          0.79030000       0.57750000       0.73950000
   116  H          0.70970000       0.42250000       0.23950000
   117  C          0.56523000       0.01394000       0.28762000
   118  C          0.93477000       0.98606000       0.78762000
   119  C          0.06523000       0.48606000       0.71238000
   120  C          0.43477000       0.51394000       0.21238000
   121  H          0.60970000       0.01870000       0.34150000
   122  H          0.89030000       0.98130000       0.84150000
   123  H          0.10970000       0.48130000       0.65850000
   124  H          0.39030000       0.51870000       0.15850000
   125  H          0.56310000       0.92930000       0.26980000
   126  H          0.93690000       0.07070000       0.76980000
   127  H          0.06310000       0.57070000       0.73020000
   128  H          0.43690000       0.42930000       0.23020000
   129  C          0.63463000       0.08764000       0.22782000
   130  C          0.86537000       0.91236000       0.72782000
   131  C          0.13463000       0.41236000       0.77218000
   132  C          0.36537000       0.58764000       0.27218000
   133  H          0.70650000       0.04070000       0.20120000
   134  H          0.79350000       0.95930000       0.70120000
   135  H          0.20650000       0.45930000       0.79880000
   136  H          0.29350000       0.54070000       0.29880000
   137  H          0.67610000       0.15720000       0.25530000
   138  H          0.82390000       0.84280000       0.75530000
   139  H          0.17610000       0.34280000       0.74470000
   140  H          0.32390000       0.65720000       0.24470000
   141  C          0.53733000       0.12864000       0.16622000
   142  C          0.96267000       0.87136000       0.66622000
   143  C          0.03733000       0.37136000       0.83378000
   144  C          0.46267000       0.62864000       0.33378000
   145  H          0.53770000       0.07600000       0.11750000
   146  H          0.96230000       0.92400000       0.61750000
   147  H          0.03770000       0.42400000       0.88250000
   148  H          0.46230000       0.57600000       0.38250000
   149  H          0.55620000       0.21170000       0.14890000
   150  H          0.94380000       0.78830000       0.64890000
   151  H          0.05620000       0.28830000       0.85110000
   152  H          0.44380000       0.71170000       0.35110000
   153  C          0.06653000       0.22263000       0.21892000
   154  C          0.43347000       0.77737000       0.71892000
   155  C          0.56653000       0.27737000       0.78108000
   156  C          0.93347000       0.72263000       0.28108000
   157  C          0.07873000       0.35763000       0.21902000
   158  C          0.42127000       0.64237000       0.71902000
   159  C          0.57873000       0.14237000       0.78098000
   160  C          0.92127000       0.85763000       0.28098000
   161  H          0.12350000       0.38360000       0.26920000
   162  H          0.37650000       0.61640000       0.76920000
   163  H          0.62350000       0.11640000       0.73080000
   164  H          0.87650000       0.88360000       0.23080000
   165  H         -0.01090000       0.39340000       0.21630000
   166  H          0.51090000       0.60660000       0.71630000
   167  H          0.48910000       0.10660000       0.78370000
   168  H          0.01090000       0.89340000       0.28370000
   169  H          0.13120000       0.38320000       0.17150000
   170  H          0.36880000       0.61680000       0.67150000
   171  H          0.63120000       0.11680000       0.82850000
   172  H          0.86880000       0.88320000       0.32850000
   173  C          0.98377000       0.18283000       0.29192000
   174  C          0.51623000       0.81717000       0.79192000
   175  C          0.48377000       0.31717000       0.70808000
   176  C          0.01623000       0.68283000       0.20808000
   177  H          0.97720000       0.09540000       0.29230000
   178  H          0.52280000       0.90460000       0.79230000
   179  H          0.47720000       0.40460000       0.70770000
   180  H          0.02280000       0.59540000       0.20770000
   181  H          0.89380000       0.21740000       0.28820000
   182  H          0.60620000       0.78260000       0.78820000
   183  H          0.39380000       0.28260000       0.71180000
   184  H          0.10620000       0.71740000       0.21180000
   185  H          0.02700000       0.20980000       0.34240000
   186  H          0.47300000       0.79020000       0.84240000
   187  H          0.52700000       0.29020000       0.65760000
   188  H          0.97300000       0.70980000       0.15760000
   189  C          0.01043000       0.17393000       0.13922000
   190  C          0.48957000       0.82607000       0.63922000
   191  C          0.51043000       0.32607000       0.86078000
   192  C         -0.01043000       0.67393000       0.36078000
   193  H          0.06470000       0.20290000       0.09340000
   194  H          0.43530000       0.79710000       0.59340000
   195  H          0.56470000       0.29710000       0.90660000
   196  H          0.93530000       0.70290000       0.40660000
   197  H          0.91770000       0.20110000       0.13240000
   198  H          0.58230000       0.79890000       0.63240000
   199  H          0.41770000       0.29890000       0.86760000
   200  H          0.08230000       0.70110000       0.36760000
   201  H          0.01260000       0.08630000       0.14040000
   202  H          0.48740000       0.91370000       0.64040000
   203  H          0.51260000       0.41370000       0.85960000
   204  H         -0.01260000       0.58630000       0.35960000
