data_UHULEQ
_symmetry_space_group_name_H-M    'P1'
_symmetry_Int_Tables_number       1
loop_
_symmetry_equiv_pos_site_id
_symmetry_equiv_pos_as_xyz
1 x,y,z
_cell_length_a                   8.94419
_cell_length_b                   13.539612
_cell_length_c                   15.249019
_cell_angle_alpha                90.0
_cell_angle_beta                 90.0
_cell_angle_gamma                90.0
loop_
_atom_site_label
_atom_site_type_symbol
_atom_site_fract_x
_atom_site_fract_y
_atom_site_fract_z
     1  O          0.31862000       0.09392170       0.31920170
     2  O          0.18138000       0.90607830       0.81920170
     3  O          0.81862000       0.40607830       0.68079830
     4  O          0.68138000       0.59392170       0.18079830
     5  O          0.32052000       0.20835150       0.42944170
     6  O          0.17948000       0.79164850       0.92944170
     7  O          0.82052000       0.29164850       0.57055830
     8  O          0.67948000       0.70835150       0.07055830
     9  O          0.96548000       0.11950150       0.27928170
    10  O          0.53452000       0.88049850       0.77928170
    11  O          0.46548000       0.38049850       0.72071830
    12  O          0.03452000       0.61950150       0.22071830
    13  O          0.87997000       0.12109160       0.05858170
    14  O          0.62003000       0.87890840       0.55858170
    15  O          0.37997000       0.37890840       0.94141830
    16  O          0.12003000       0.62109160       0.44141830
    17  O          0.11923000       0.08883170       0.09452190
    18  O          0.38077000       0.91116830       0.59452190
    19  O          0.61923000       0.41116830       0.90547810
    20  O          0.88077000       0.58883170       0.40547810
    21  N          0.14733000       0.08552180       0.42442000
    22  N          0.35267000       0.91447820       0.92442000
    23  N          0.64733000       0.41447820       0.57558000
    24  N          0.85267000       0.58552180       0.07558000
    25  N         -0.01093000       0.96264830       0.23242000
    26  N          0.51093000       0.03735170       0.73242000
    27  N          0.48907000       0.53735170       0.76758000
    28  N          0.01093000       0.46264830       0.26758000
    29  C          0.26733000       0.13602000       0.39393000
    30  C          0.23267000       0.86398000       0.89393000
    31  C          0.76733000       0.36398000       0.60607000
    32  C          0.73267000       0.63602000       0.10607000
    33  C          0.07753000       0.00142000       0.37972000
    34  C          0.42247000      -0.00142000       0.87972000
    35  C          0.57753000       0.49858000       0.62028000
    36  C          0.92247000       0.50142000       0.12028000
    37  C          0.00813000       0.03442000       0.29242000
    38  C          0.49187000       0.96558000       0.79242000
    39  C          0.50813000       0.46558000       0.70758000
    40  C         -0.00813000       0.53442000       0.20758000
    41  C          0.91967000       0.98338000       0.14732000
    42  C          0.58033000       0.01662000       0.64732000
    43  C          0.41967000       0.51662000       0.85268000
    44  C          0.08033000       0.48338000       0.35268000
    45  H          0.80950000      -0.00700000       0.15440000
    46  H          0.69050000       0.00700000       0.65440000
    47  H          0.30950000       0.50700000       0.84560000
    48  H          0.19050000       0.49300000       0.34560000
    49  C         -0.01204000       0.07082000       0.10033000
    50  C          0.51204000       0.92918000       0.60033000
    51  C          0.48796000       0.42918000       0.89967000
    52  C          0.01204000       0.57082000       0.39967000
    53  C          0.93115000       0.19833000       0.00063000
    54  C          0.56885000       0.80167000       0.50063000
    55  C          0.43115000       0.30167000      -0.00063000
    56  C          0.06885000       0.69833000       0.49937000
    57  H         -0.00060000       0.24220000       0.03250000
    58  H          0.50060000       0.75780000       0.53250000
    59  H          0.49940000       0.25780000       0.96750000
    60  H          0.00060000       0.74220000       0.46750000
    61  H          0.84530000       0.23630000       0.97940000
    62  H          0.65470000       0.76370000       0.47940000
    63  H          0.34530000       0.26370000       0.02060000
    64  H          0.15470000       0.73630000       0.52060000
    65  H          0.98370000       0.16890000       0.95070000
    66  H          0.51630000       0.83110000       0.45070000
    67  H          0.48370000       0.33110000       0.04930000
    68  H          0.01630000       0.66890000       0.54930000
    69  C          0.95166000       0.88798000       0.09433000
    70  C          0.54834000       0.11202000       0.59433000
    71  C          0.45166000       0.61202000       0.90567000
    72  C          0.04834000       0.38798000       0.40567000
    73  H          0.86310000       0.84420000       0.09360000
    74  H          0.63690000       0.15580000       0.59360000
    75  H          0.36310000       0.65580000       0.90640000
    76  H          0.13690000       0.34420000       0.40640000
    77  H          0.98000000       0.90390000       0.03310000
    78  H          0.52000000       0.09610000       0.53310000
    79  H          0.48000000       0.59610000       0.96690000
    80  H          0.02000000       0.40390000       0.46690000
    81  C          0.08164000       0.83958000       0.14313000
    82  C          0.41836000       0.16042000       0.64313000
    83  C          0.58164000       0.66042000       0.85687000
    84  C          0.91836000       0.33958000       0.35687000
    85  H          0.08640000       0.76780000       0.13110000
    86  H          0.41360000       0.23220000       0.63110000
    87  H          0.58640000       0.73220000       0.86890000
    88  H          0.91360000       0.26780000       0.36890000
    89  H          0.17830000       0.87030000       0.12700000
    90  H          0.32170000       0.12970000       0.62700000
    91  H          0.67830000       0.62970000       0.87300000
    92  H          0.82170000       0.37030000       0.37300000
    93  C          0.04244000       0.85968000       0.23733000
    94  C          0.45756000       0.14032000       0.73733000
    95  C          0.54244000       0.64032000       0.76267000
    96  C          0.95756000       0.35968000       0.26267000
    97  H          0.95650000       0.81640000       0.25420000
    98  H          0.54350000       0.18360000       0.75420000
    99  H          0.45650000       0.68360000       0.74580000
   100  H          0.04350000       0.31640000       0.24580000
   101  C          0.16273000       0.84918000       0.30493000
   102  C          0.33727000       0.15082000       0.80493000
   103  C          0.66273000       0.65082000       0.69507000
   104  C          0.83727000       0.34918000       0.19507000
   105  H          0.22810000       0.79400000       0.30190000
   106  H          0.27190000       0.20600000       0.80190000
   107  H          0.72810000       0.70600000       0.69810000
   108  H          0.77190000       0.29400000       0.19810000
   109  C          0.18094000       0.91438000       0.36873000
   110  C          0.31906000       0.08562000       0.86873000
   111  C          0.68094000       0.58562000       0.63127000
   112  C          0.81906000       0.41438000       0.13127000
   113  H          0.26140000       0.90620000       0.40870000
   114  H          0.23860000       0.09380000       0.90870000
   115  H          0.76140000       0.59380000       0.59130000
   116  H          0.73860000       0.40620000       0.09130000
   117  C          0.94926000       0.97508000       0.44462000
   118  C          0.55074000       0.02492000       0.94462000
   119  C          0.44926000       0.52492000       0.55538000
   120  C          0.05074000       0.47508000       0.05538000
   121  H          0.86220000       0.94730000       0.41310000
   122  H          0.63780000       0.05270000       0.91310000
   123  H          0.36220000       0.55270000       0.58690000
   124  H          0.13780000       0.44730000       0.08690000
   125  H          0.98360000       0.92680000       0.48900000
   126  H          0.51640000       0.07320000       0.98900000
   127  H          0.48360000       0.57320000       0.51100000
   128  H          0.01640000       0.42680000       0.01100000
   129  C          0.90967000       0.07412000       0.48753000
   130  C          0.59033000       0.92588000       0.98753000
   131  C          0.40967000       0.42588000       0.51247000
   132  C          0.09033000       0.57412000       0.01247000
   133  H          0.84400000       0.11390000       0.44900000
   134  H          0.65600000       0.88610000       0.94900000
   135  H          0.34400000       0.38610000       0.55100000
   136  H          0.15600000       0.61390000       0.05100000
   137  H          0.85940000       0.06410000       0.54460000
   138  H          0.64060000       0.93590000       0.04460000
   139  H          0.35940000       0.43590000       0.45540000
   140  H          0.14060000       0.56410000       0.95540000
   141  C          0.06143000       0.12312000       0.49933000
   142  C          0.43857000       0.87688000      -0.00067000
   143  C          0.56143000       0.37688000       0.50067000
   144  C          0.93857000       0.62312000       0.00067000
   145  H          0.05270000       0.19600000       0.49710000
   146  H          0.44730000       0.80400000      -0.00290000
   147  H          0.55270000       0.30400000       0.50290000
   148  H          0.94730000       0.69600000       0.00290000
   149  H          0.10800000       0.10360000       0.55550000
   150  H          0.39200000       0.89640000       0.05550000
   151  H          0.60800000       0.39640000       0.44450000
   152  H          0.89200000       0.60360000       0.94450000
   153  C          0.44953000       0.13463000       0.27353000
   154  C          0.05047000       0.86537000       0.77353000
   155  C          0.94953000       0.36537000       0.72647000
   156  C          0.55047000       0.63463000       0.22647000
   157  C          0.41454000       0.23923000       0.24233000
   158  C          0.08546000       0.76077000       0.74233000
   159  C          0.91454000       0.26077000       0.75767000
   160  C          0.58546000       0.73923000       0.25767000
   161  H          0.32270000       0.23860000       0.20720000
   162  H          0.17730000       0.76140000       0.70720000
   163  H          0.82270000       0.26140000       0.79280000
   164  H          0.67730000       0.73860000       0.29280000
   165  H          0.49750000       0.26380000       0.20650000
   166  H          0.00250000       0.73620000       0.70650000
   167  H         -0.00250000       0.23620000       0.79350000
   168  H          0.50250000       0.76380000       0.29350000
   169  H          0.40080000       0.28250000       0.29320000
   170  H          0.09920000       0.71750000       0.79320000
   171  H          0.90080000       0.21750000       0.70680000
   172  H          0.59920000       0.78250000       0.20680000
   173  C          0.58633000       0.13013000       0.33173000
   174  C          0.91367000       0.86987000       0.83173000
   175  C          0.08633000       0.36987000       0.66827000
   176  C          0.41367000       0.63013000       0.16827000
   177  H          0.57720000       0.17940000       0.37850000
   178  H          0.92280000       0.82060000       0.87850000
   179  H          0.07720000       0.32060000       0.62150000
   180  H          0.42280000       0.67940000       0.12150000
   181  H          0.67580000       0.14400000       0.29670000
   182  H          0.82420000       0.85600000       0.79670000
   183  H          0.17580000       0.35600000       0.70330000
   184  H          0.32420000       0.64400000       0.20330000
   185  H          0.59450000       0.06410000       0.35770000
   186  H          0.90550000       0.93590000       0.85770000
   187  H          0.09450000       0.43590000       0.64230000
   188  H          0.40550000       0.56410000       0.14230000
   189  C          0.46584000       0.06513000       0.19593000
   190  C          0.03416000       0.93487000       0.69593000
   191  C          0.96584000       0.43487000       0.80407000
   192  C          0.53416000       0.56513000       0.30407000
   193  H          0.48060000      -0.00250000       0.21720000
   194  H          0.01940000       0.00250000       0.71720000
   195  H          0.98060000       0.50250000       0.78280000
   196  H          0.51940000       0.49750000       0.28280000
   197  H          0.55210000       0.08500000       0.16050000
   198  H          0.94790000       0.91500000       0.66050000
   199  H          0.05210000       0.41500000       0.83950000
   200  H          0.44790000       0.58500000       0.33950000
   201  H          0.37510000       0.06780000       0.15990000
   202  H          0.12490000       0.93220000       0.65990000
   203  H          0.87510000       0.43220000       0.84010000
   204  H          0.62490000       0.56780000       0.34010000
