data_UJAGIX02
_symmetry_space_group_name_H-M    'P1'
_symmetry_Int_Tables_number       1
loop_
_symmetry_equiv_pos_site_id
_symmetry_equiv_pos_as_xyz
1 x,y,z
_cell_length_a                   11.862911
_cell_length_b                   3.79173
_cell_length_c                   22.5802
_cell_angle_alpha                90.0
_cell_angle_beta                 92.9073
_cell_angle_gamma                90.0
loop_
_atom_site_label
_atom_site_type_symbol
_atom_site_fract_x
_atom_site_fract_y
_atom_site_fract_z
     1  Cl         0.54294500      -0.02476830       0.72679300
     2  Cl         0.95705500       0.47523170       0.77320700
     3  Cl         0.45705500       0.02476830       0.27320700
     4  Cl         0.04294500       0.52476830       0.22679300
     5  N          0.84763150       0.35535000       0.50171800
     6  N          0.65236850       0.85535000      -0.00171800
     7  N          0.15236850       0.64465000       0.49828200
     8  N          0.34763150       0.14465000       0.00171800
     9  O          0.68986150       0.54255000       0.45181800
    10  O          0.81013850       0.04255000       0.04818200
    11  O          0.31013850       0.45745000       0.54818200
    12  O          0.18986150       0.95745000       0.95181800
    13  C          0.69919180       0.62106000       0.55898100
    14  C          0.80080820       0.12106000       0.94101900
    15  C          0.30080820       0.37894000       0.44101900
    16  C          0.19919180       0.87894000       0.05898100
    17  C          0.76138190       0.40366000       0.41103100
    18  C          0.73861810       0.90366000       0.08896900
    19  C          0.23861810       0.59634000       0.58896900
    20  C          0.26138190       0.09634000       0.91103100
    21  C          0.74652000       0.50616000       0.50361110
    22  C          0.75348000       0.00616000      -0.00361110
    23  C          0.25348000       0.49384000       0.49638890
    24  C          0.24652000      -0.00616000       0.00361110
    25  C          0.75986190       0.59206000       0.61332100
    26  C          0.74013810       0.09206000       0.88667900
    27  C          0.24013810       0.40794000       0.38667900
    28  C          0.25986190       0.90794000       0.11332100
    29  H          0.83395600       0.49627200       0.61489000
    30  H          0.66604400      -0.00372800       0.88511000
    31  H          0.16604400       0.50372800       0.38511000
    32  H          0.33395600       0.00372800       0.11489000
    33  C          0.85852190       0.28766000       0.44176100
    34  C          0.64147810       0.78766000       0.05823900
    35  C          0.14147810       0.71234000       0.55823900
    36  C          0.35852190       0.21234000       0.94176100
    37  C          0.71243190       0.70256000       0.66508100
    38  C          0.78756810       0.20256000       0.83491900
    39  C          0.28756810       0.29744000       0.33491900
    40  C          0.21243190       0.79744000       0.16508100
    41  H          0.75366600       0.68448400       0.70212900
    42  H          0.74633400       0.18448400       0.79787100
    43  H          0.24633400       0.31551600       0.29787100
    44  H          0.25366600       0.81551600       0.20212900
    45  C          0.54209190       0.87266000       0.60875100
    46  C          0.95790810       0.37266000       0.89124900
    47  C          0.45790810       0.12734000       0.39124900
    48  C          0.04209190       0.62734000       0.10875100
    49  H          0.46822100      -0.03003000       0.60746700
    50  H          0.03177900       0.46997000       0.89253300
    51  H          0.53177900       0.03003000       0.39253300
    52  H          0.96822100       0.53003000       0.10746700
    53  C          0.60368190       0.84016000       0.66191100
    54  C          0.89631810       0.34016000       0.83808900
    55  C          0.39631810       0.15984000       0.33808900
    56  C          0.10368190       0.65984000       0.16191100
    57  C          0.58990190       0.76076000       0.55712100
    58  C          0.91009810       0.26076000       0.94287900
    59  C          0.41009810       0.23924000       0.44287900
    60  C          0.08990190       0.73924000       0.05712100
    61  H          0.54807600       0.77916400       0.52024800
    62  H          0.95192400       0.27916400       0.97975200
    63  H          0.45192400       0.22083600       0.47975200
    64  H          0.04807600       0.72083600       0.02024800
    65  C          0.94732000       0.13326000       0.41323110
    66  C          0.55268000       0.63326000       0.08676890
    67  C          0.05268000       0.86674000       0.58676890
    68  C          0.44732000       0.36674000       0.91323110
    69  H          0.01382100       0.05310100       0.43428200
    70  H          0.48617900       0.55310100       0.06571800
    71  H          0.98617900       0.94689900       0.56571800
    72  H          0.51382100       0.44689900       0.93428200
    73  C          0.74602000       0.37277000       0.35010100
    74  C          0.75398000       0.87277000       0.14989900
    75  C          0.25398000       0.62723000       0.64989900
    76  C          0.24602000       0.12723000       0.85010100
    77  H          0.67907100       0.45102500       0.32927600
    78  H          0.82092900       0.95102500       0.17072400
    79  H          0.32092900       0.54897500       0.67072400
    80  H          0.17907100       0.04897500       0.82927600
    81  C          0.93262000       0.10367000       0.35214110
    82  C          0.56738000       0.60367000       0.14785890
    83  C          0.06738000       0.89633000       0.64785890
    84  C          0.43262000       0.39633000       0.85214110
    85  H         -0.00891200       0.00095500       0.33065600
    86  H          0.50891200       0.50095500       0.16934400
    87  H          0.00891200      -0.00095500       0.66934400
    88  H          0.49108800       0.49904500       0.83065600
    89  C          0.83482000       0.21967000       0.32112110
    90  C          0.66518000       0.71967000       0.17887890
    91  C          0.16518000       0.78033000       0.67887890
    92  C          0.33482000       0.28033000       0.82112110
    93  H          0.82856100       0.19361400       0.27924100
    94  H          0.67143900       0.69361400       0.22075900
    95  H          0.17143900       0.80638600       0.72075900
    96  H          0.32856100       0.30638600       0.77924100
