data_UJAGIX01
_symmetry_space_group_name_H-M    'P1'
_symmetry_Int_Tables_number       1
loop_
_symmetry_equiv_pos_site_id
_symmetry_equiv_pos_as_xyz
1 x,y,z
_cell_length_a                   11.96691
_cell_length_b                   3.87763
_cell_length_c                   22.6963
_cell_angle_alpha                90.0
_cell_angle_beta                 92.5119
_cell_angle_gamma                90.0
loop_
_atom_site_label
_atom_site_type_symbol
_atom_site_fract_x
_atom_site_fract_y
_atom_site_fract_z
     1  Cl         0.54512100       0.03423000       0.22485500
     2  Cl         0.95487900       0.53423000       0.27514500
     3  Cl         0.45487900      -0.03423000       0.77514500
     4  Cl         0.04512100       0.46577000       0.72485500
     5  O          0.84622000       0.64217000       0.00105120
     6  O          0.65378000       0.14217000       0.49894880
     7  O          0.15378000       0.35783000      -0.00105120
     8  O          0.34622000       0.85783000       0.50105120
     9  N          0.69152000       0.45817000       0.95115870
    10  N          0.80848000       0.95817000       0.54884130
    11  N          0.30848000       0.54183000       0.04884130
    12  N          0.19152000       0.04183000       0.45115870
    13  C          0.85793000       0.71361000       0.94122830
    14  C          0.64207000       0.21361000       0.55877170
    15  C          0.14207000       0.28639000       0.05877170
    16  C          0.35793000       0.78639000       0.44122830
    17  C          0.94604000       0.86551000       0.91348000
    18  C          0.55396000       0.36551000       0.58652000
    19  C          0.05396000       0.13449000       0.08652000
    20  C          0.44604000       0.63449000       0.41348000
    21  H          0.00990000       0.94260000       0.93440000
    22  H          0.49010000       0.44260000       0.56560000
    23  H         -0.00990000       0.05740000       0.06560000
    24  H          0.50990000       0.55740000       0.43440000
    25  C          0.93304000       0.89571100       0.85268000
    26  C          0.56696000       0.39571100       0.64732000
    27  C          0.06696000       0.10428900       0.14732000
    28  C          0.43304000       0.60428900       0.35268000
    29  H         -0.00980000      -0.00630000       0.83180000
    30  H          0.50980000       0.49370000       0.66820000
    31  H          0.00980000       0.00630000       0.16820000
    32  H          0.49020000       0.50630000       0.33180000
    33  C          0.83784000       0.78441200       0.82258000
    34  C          0.66216000       0.28441200       0.67742000
    35  C          0.16216000       0.21558800       0.17742000
    36  C          0.33784000       0.71558800       0.32258000
    37  H          0.83180000       0.81280000       0.78190000
    38  H          0.66820000       0.31280000       0.71810000
    39  H          0.16820000       0.18720000       0.21810000
    40  H          0.33180000       0.68720000       0.28190000
    41  C          0.75054000       0.63161100       0.85069810
    42  C          0.74946000       0.13161100       0.64930190
    43  C          0.24946000       0.36838900       0.14930190
    44  C          0.25054000       0.86838900       0.35069810
    45  H          0.68650000       0.55510000       0.82990000
    46  H          0.81350000       0.05510000       0.67010000
    47  H          0.31350000       0.44490000       0.17010000
    48  H          0.18650000       0.94490000       0.32990000
    49  C          0.76273000       0.59791000       0.91100830
    50  C          0.73727000       0.09791000       0.58899170
    51  C          0.23727000       0.40209000       0.08899170
    52  C          0.26273000       0.90209000       0.41100830
    53  C          0.74563000       0.49278000       0.00280190
    54  C          0.75437000      -0.00722000       0.49719810
    55  C          0.25437000       0.50722000      -0.00280190
    56  C          0.24563000       0.00722000       0.50280190
    57  C          0.69973000       0.37909000       0.05744170
    58  C          0.80027000       0.87909000       0.44255830
    59  C          0.30027000       0.62091000       0.94255830
    60  C          0.19973000       0.12091000       0.55744170
    61  C          0.75883000       0.41041000       0.11081180
    62  C          0.74117000       0.91041000       0.38918820
    63  C          0.24117000       0.58959000       0.88918820
    64  C          0.25883000       0.08959000       0.61081180
    65  H          0.83050000       0.50360000       0.11220000
    66  H          0.66950000       0.00360000       0.38780000
    67  H          0.16950000       0.49640000       0.88780000
    68  H          0.33050000      -0.00360000       0.61220000
    69  C          0.71094000       0.30201000       0.16268180
    70  C          0.78906000       0.80201000       0.33731820
    71  C          0.28906000       0.69799000       0.83731820
    72  C          0.21094000       0.19799000       0.66268180
    73  H          0.75060000       0.32160000       0.19870000
    74  H          0.74940000       0.82160000       0.30130000
    75  H          0.24940000       0.67840000       0.80130000
    76  H          0.25060000       0.17840000       0.69870000
    77  C          0.60503000       0.16661000       0.16018180
    78  C          0.89497000       0.66661000       0.33981820
    79  C          0.39497000       0.83339000       0.83981820
    80  C          0.10503000       0.33339000       0.66018180
    81  C          0.54523000       0.13151000       0.10787190
    82  C          0.95477000       0.63151000       0.39212810
    83  C          0.45477000       0.86849000       0.89212810
    84  C          0.04523000       0.36849000       0.60787190
    85  H          0.47380000       0.03650000       0.10680000
    86  H          0.02620000       0.53650000       0.39320000
    87  H          0.52620000       0.96350000       0.89320000
    88  H          0.97380000       0.46350000       0.60680000
    89  C          0.59283000       0.23991000       0.05639180
    90  C          0.90717000       0.73991000       0.44360820
    91  C          0.40717000       0.76009000       0.94360820
    92  C          0.09283000       0.26009000       0.55639180
    93  H          0.55250000       0.21890000       0.02060000
    94  H          0.94750000       0.71890000       0.47940000
    95  H          0.44750000       0.78110000       0.97940000
    96  H          0.05250000       0.28110000       0.52060000
