data_UJAGIX03
_symmetry_space_group_name_H-M    'P1'
_symmetry_Int_Tables_number       1
loop_
_symmetry_equiv_pos_site_id
_symmetry_equiv_pos_as_xyz
1 x,y,z
_cell_length_a                   11.956011
_cell_length_b                   3.88224
_cell_length_c                   22.6972
_cell_angle_alpha                90.0
_cell_angle_beta                 92.5745
_cell_angle_gamma                90.0
loop_
_atom_site_label
_atom_site_type_symbol
_atom_site_fract_x
_atom_site_fract_y
_atom_site_fract_z
     1  Cl         0.54622140       0.21765000       0.72422700
     2  Cl         0.04622140       0.78235000       0.22422700
     3  O          0.84704000       0.60741200       0.49982000
     4  O          0.34704000       0.39258800      -0.00018000
     5  N          0.69434000       0.79441200       0.45082000
     6  N          0.19434000       0.20558800       0.95082000
     7  C          0.85935000       0.54351600       0.44133000
     8  C          0.35935000       0.45648400       0.94133000
     9  C          0.70075000       0.87351500       0.55692000
    10  C          0.20075000       0.12648500       0.05692000
    11  C          0.54665000       0.12201900       0.60653000
    12  C          0.04665000       0.87798100       0.10653000
    13  H          0.47539300       0.21859000       0.60451600
    14  H          0.97539300       0.78141000       0.10451600
    15  C          0.60455000       0.08351500       0.66043000
    16  C          0.10455000       0.91648500       0.16043000
    17  C          0.76275000       0.65761600       0.41033000
    18  C          0.26275000       0.34238400       0.91033000
    19  C          0.94806000       0.38491900       0.41433000
    20  C          0.44806000       0.61508100       0.91433000
    21  H          0.01144600       0.30399700       0.43507500
    22  H          0.51144600       0.69600300       0.93507500
    23  C          0.75097000       0.61420000       0.34923000
    24  C          0.25097000       0.38580000       0.84923000
    25  H          0.68651600       0.68424400       0.32798800
    26  H          0.18651600       0.31575600       0.82798800
    27  C          0.71505000       0.94441700       0.66263000
    28  C          0.21505000       0.05558300       0.16263000
    29  H          0.75581500       0.92383300       0.69826600
    30  H          0.25581500       0.07616700       0.19826600
    31  C          0.93216000       0.35791700       0.35113000
    32  C          0.43216000       0.64208300       0.85113000
    33  H         -0.01068200       0.26349800       0.32981300
    34  H          0.48931800       0.73650200       0.82981300
    35  C          0.74915000       0.75421500       0.50373000
    36  C          0.24915000       0.24578500       0.00373000
    37  C          0.83848000       0.46320000       0.32173000
    38  C          0.33848000       0.53680000       0.82173000
    39  H          0.83244100       0.43259400       0.28107600
    40  H          0.33244100       0.56740600       0.78107600
    41  C          0.59496000       0.01781700       0.55703000
    42  C          0.09496000      -0.01781700       0.05703000
    43  H          0.55502400       0.04424300       0.52111100
    44  H          0.05502400       0.95575700       0.02111100
    45  C          0.75975000       0.84161700       0.61073000
    46  C          0.25975000       0.15838300       0.11073000
    47  H          0.83140700       0.74816900       0.61165300
    48  H          0.33140700       0.25183100       0.11165300
    49  Cl         0.45670130       0.28365000       0.27397700
    50  Cl         0.95670130       0.71635000       0.77397700
    51  O          0.31074000       0.70961100       0.54772000
    52  O          0.81074000       0.29038900       0.04772000
    53  N          0.15474000       0.89531100       0.49747190
    54  N          0.65474000       0.10468900      -0.00252810
    55  C          0.25656000       0.74401400       0.49753000
    56  C          0.75656000       0.25598600      -0.00247000
    57  C          0.24245000       0.66091400       0.38733000
    58  C          0.74245000       0.33908600       0.88733000
    59  H          0.17036500       0.75220800       0.38545900
    60  H          0.67036500       0.24779200       0.88545900
    61  C          0.41035000       0.49621500       0.44363000
    62  C          0.91035000       0.50378500       0.94363000
    63  H          0.45068400       0.47928500       0.47943700
    64  H          0.95068400       0.52071500       0.97943700
    65  C          0.23716000       0.85411600       0.58833000
    66  C          0.73716000       0.14588400       0.08833000
    67  C          0.30185000       0.63391500       0.44083000
    68  C          0.80185000       0.36608500       0.94083000
    69  C          0.06666000       0.15020000       0.64423000
    70  C          0.56666000       0.84980000       0.14423000
    71  H          0.00952400       0.25527400       0.66410400
    72  H          0.50952400       0.74472600       0.16410400
    73  C          0.29156000       0.55001700       0.33623000
    74  C          0.79156000       0.44998300       0.83623000
    75  H          0.25289700       0.57034500       0.29993100
    76  H          0.75289700       0.42965500       0.79993100
    77  C          0.16527000       0.02620000       0.67693000
    78  C          0.66527000      -0.02620000       0.17693000
    79  H          0.17010600       0.04700000       0.71775800
    80  H          0.67010600       0.95300000       0.21775800
    81  C          0.39416000       0.41441600       0.33943000
    82  C          0.89416000       0.58558400       0.83943000
    83  C          0.45715000       0.38381800       0.39093000
    84  C          0.95715000       0.61618200       0.89093000
    85  H          0.52888400       0.29134300       0.39119300
    86  H          0.02888400       0.70865700       0.89119300
    87  C          0.05716000       0.11691800       0.58753000
    88  C          0.55716000       0.88308200       0.08753000
    89  H         -0.00707500       0.19377600       0.56683600
    90  H          0.49292500       0.80622400       0.06683600
    91  C          0.14245000      -0.03288600       0.55783000
    92  C          0.64245000       0.03288600       0.05783000
    93  C          0.25256000       0.87681600       0.64773000
    94  C          0.75256000       0.12318400       0.14773000
    95  H          0.31718700       0.79755400       0.66755600
    96  H          0.81718700       0.20244600       0.16755600
