data_UJEZIU
_symmetry_space_group_name_H-M    'P1'
_symmetry_Int_Tables_number       1
loop_
_symmetry_equiv_pos_site_id
_symmetry_equiv_pos_as_xyz
1 x,y,z
_cell_length_a                   15.89264
_cell_length_b                   7.71452
_cell_length_c                   12.03363
_cell_angle_alpha                90.0
_cell_angle_beta                 102.88401
_cell_angle_gamma                90.0
loop_
_atom_site_label
_atom_site_type_symbol
_atom_site_fract_x
_atom_site_fract_y
_atom_site_fract_z
     1  S          0.39730300       0.57476500       0.17711300
     2  S          0.60269700       0.07476500       0.32288700
     3  S          0.60269700       0.42523500       0.82288700
     4  S          0.39730300       0.92523500       0.67711300
     5  O          0.46233800       0.67276170       0.13881110
     6  O          0.53766200       0.17276170       0.36118890
     7  O          0.53766200       0.32723830       0.86118890
     8  O          0.46233800       0.82723830       0.63881110
     9  O          0.38329800       0.61173170       0.28794100
    10  O          0.61670200       0.11173170       0.21205900
    11  O          0.61670200       0.38826830       0.71205900
    12  O          0.38329800       0.88826830       0.78794100
    13  O          0.06924110       0.74343000       0.74624850
    14  O          0.93075890       0.24343000       0.75375150
    15  O          0.93075890       0.25657000       0.25375150
    16  O          0.06924110       0.75657000       0.24624850
    17  O          0.00010100       0.65923000       0.86852840
    18  O         -0.00010100       0.15923000       0.63147160
    19  O         -0.00010100       0.34077000       0.13147160
    20  O          0.00010100       0.84077000       0.36852840
    21  N          0.06639110       0.68793000       0.83914850
    22  N          0.93360890       0.18793000       0.66085150
    23  N          0.93360890       0.31207000       0.16085150
    24  N          0.06639110       0.81207000       0.33914850
    25  N          0.41278100       0.36992000       0.17262120
    26  N          0.58721900       0.86992000       0.32737880
    27  N          0.58721900       0.63008000       0.82737880
    28  N          0.41278100       0.13008000       0.67262120
    29  C          0.29968100       0.60402000       0.07470130
    30  C          0.70031900       0.10402000       0.42529870
    31  C          0.70031900       0.39598000       0.92529870
    32  C          0.29968100       0.89598000       0.57470130
    33  C          0.22309110       0.55342000       0.10203150
    34  C          0.77690890       0.05342000       0.39796850
    35  C          0.77690890       0.44658000       0.89796850
    36  C          0.22309110       0.94658000       0.60203150
    37  H          0.22370000       0.50000000       0.17340000
    38  H          0.77630000       0.00000000       0.32660000
    39  H          0.77630000       0.50000000       0.82660000
    40  H          0.22370000       0.00000000       0.67340000
    41  C          0.14624110       0.58092000       0.02527150
    42  C          0.85375890       0.08092000       0.47472850
    43  C          0.85375890       0.41908000       0.97472850
    44  C          0.14624110       0.91908000       0.52527150
    45  H          0.09290000       0.54930000       0.04290000
    46  H          0.90710000       0.04930000       0.45710000
    47  H          0.90710000       0.45070000       0.95710000
    48  H          0.09290000       0.95070000       0.54290000
    49  C          0.14858110       0.65562000       0.92193860
    50  C          0.85141890       0.15562000       0.57806140
    51  C          0.85141890       0.34438000       0.07806140
    52  C          0.14858110       0.84438000       0.42193860
    53  C          0.22398110       0.70352000       0.89274850
    54  C          0.77601890       0.20352000       0.60725150
    55  C          0.77601890       0.29648000       0.10725150
    56  C          0.22398110       0.79648000       0.39274850
    57  H          0.22330000       0.75290000       0.82020000
    58  H          0.77670000       0.25290000       0.67980000
    59  H          0.77670000       0.24710000       0.17980000
    60  H          0.22330000       0.74710000       0.32020000
    61  C          0.30067110       0.67852000       0.97097860
    62  C          0.69932890       0.17852000       0.52902140
    63  C          0.69932890       0.32148000       0.02902140
    64  C          0.30067110       0.82148000       0.47097860
    65  H          0.35380000       0.71230000       0.95360000
    66  H          0.64620000       0.21230000       0.54640000
    67  H          0.64620000       0.28770000       0.04640000
    68  H          0.35380000       0.78770000       0.45360000
    69  C          0.43528120       0.29282000       0.07162150
    70  C          0.56471880       0.79282000       0.42837850
    71  C          0.56471880       0.70718000       0.92837850
    72  C          0.43528120       0.20718000       0.57162150
    73  H          0.49880000       0.28330000       0.08400000
    74  H          0.50120000       0.78330000       0.41600000
    75  H          0.50120000       0.71670000       0.91600000
    76  H          0.49880000       0.21670000       0.58400000
    77  H          0.41450000       0.36860000       0.00480000
    78  H          0.58550000       0.86860000       0.49520000
    79  H          0.58550000       0.63140000      -0.00480000
    80  H          0.41450000       0.13140000       0.50480000
    81  C          0.39504130       0.11473000       0.04836180
    82  C          0.60495870       0.61473000       0.45163820
    83  C          0.60495870       0.88527000       0.95163820
    84  C          0.39504130       0.38527000       0.54836180
    85  H          0.41530000       0.06140000       0.98420000
    86  H          0.58470000       0.56140000       0.51580000
    87  H          0.58470000       0.93860000       0.01580000
    88  H          0.41530000       0.43860000       0.48420000
    89  H          0.41520000       0.04090000       0.11640000
    90  H          0.58480000       0.54090000       0.38360000
    91  H          0.58480000       0.95910000       0.88360000
    92  H          0.41520000       0.45910000       0.61640000
    93  C          0.29844130       0.11792000       0.02003160
    94  C          0.70155870       0.61792000       0.47996840
    95  C          0.70155870       0.88208000       0.97996840
    96  C          0.29844130       0.38208000       0.52003160
    97  C          0.25350140       0.17343000       0.91352830
    98  C          0.74649860       0.67343000       0.58647170
    99  C          0.74649860       0.82657000       0.08647170
   100  C          0.25350140       0.32657000       0.41352830
   101  H          0.28470000       0.20940000       0.85880000
   102  H          0.71530000       0.70940000       0.64120000
   103  H          0.71530000       0.79060000       0.14120000
   104  H          0.28470000       0.29060000       0.35880000
   105  C          0.16458150       0.17723000       0.88558000
   106  C          0.83541850       0.67723000       0.61442000
   107  C          0.83541850       0.82277000       0.11442000
   108  C          0.16458150       0.32277000       0.38558000
   109  H          0.13510000       0.21530000       0.81220000
   110  H          0.86490000       0.71530000       0.68780000
   111  H          0.86490000       0.78470000       0.18780000
   112  H          0.13510000       0.28470000       0.31220000
   113  C          0.11859160       0.12633000       0.96337000
   114  C          0.88140840       0.62633000       0.53663000
   115  C          0.88140840       0.87367000       0.03663000
   116  C          0.11859160       0.37367000       0.46337000
   117  H          0.05730000       0.12860000       0.94420000
   118  H          0.94270000       0.62860000       0.55580000
   119  H          0.94270000       0.87140000       0.05580000
   120  H          0.05730000       0.37140000       0.44420000
   121  C          0.16144180       0.07203000       0.06942000
   122  C          0.83855820       0.57203000       0.43058000
   123  C          0.83855820       0.92797000       0.93058000
   124  C          0.16144180       0.42797000       0.56942000
   125  H          0.12980000       0.03680000       0.12380000
   126  H          0.87020000       0.53680000       0.37620000
   127  H          0.87020000       0.96320000       0.87620000
   128  H          0.12980000       0.46320000       0.62380000
   129  C          0.25084160       0.06813000       0.09736190
   130  C          0.74915840       0.56813000       0.40263810
   131  C          0.74915840       0.93187000       0.90263810
   132  C          0.25084160       0.43187000       0.59736190
   133  H          0.27980000       0.03040000       0.17110000
   134  H          0.72020000       0.53040000       0.32890000
   135  H          0.72020000       0.96960000       0.82890000
   136  H          0.27980000       0.46960000       0.67110000
   137  H          0.43581300       0.33030000       0.23491700
   138  H          0.56418700       0.83030000       0.26508300
   139  H          0.56418700       0.66970000       0.76508300
   140  H          0.43581300       0.16970000       0.73491700
