data_UJEZIU02
_symmetry_space_group_name_H-M    'P1'
_symmetry_Int_Tables_number       1
loop_
_symmetry_equiv_pos_site_id
_symmetry_equiv_pos_as_xyz
1 x,y,z
_cell_length_a                   9.54346
_cell_length_b                   12.29437
_cell_length_c                   13.82598
_cell_angle_alpha                111.3243
_cell_angle_beta                 104.1253
_cell_angle_gamma                90.0183
loop_
_atom_site_label
_atom_site_type_symbol
_atom_site_fract_x
_atom_site_fract_y
_atom_site_fract_z
     1  S          0.33643600       0.62321500       0.46871500
     2  S          0.66356400       0.37678500       0.53128500
     3  O          0.19702180       0.65428150       0.42689150
     4  O          0.80297820       0.34571850       0.57310850
     5  O          0.34842180       0.54910140       0.52981140
     6  O          0.65157820       0.45089860       0.47018860
     7  O          0.83723000       0.05162000       0.80962000
     8  O          0.16277000       0.94838000       0.19038000
     9  O          0.70993000       0.14719170       0.72252000
    10  O          0.29007000       0.85280830       0.27748000
    11  N          0.73323000       0.05912000       0.74182000
    12  N          0.26677000       0.94088000       0.25818000
    13  N          0.40403000       0.55791180       0.36983170
    14  N          0.59597000       0.44208820       0.63016830
    15  C          0.44882000       0.75488180       0.55371180
    16  C          0.55118000       0.24511820       0.44628820
    17  C          0.41083000       0.86122000       0.54612000
    18  C          0.58917000       0.13878000       0.45388000
    19  H          0.32280000       0.86450000       0.49760000
    20  H          0.67720000       0.13550000       0.50240000
    21  C          0.50283000       0.96202000       0.61012000
    22  C          0.49717000       0.03798000       0.38988000
    23  H          0.47840000       0.03570000       0.60680000
    24  H          0.52160000       0.96430000       0.39320000
    25  C          0.62913000       0.95372000       0.67793190
    26  C          0.37087000       0.04628000       0.32206810
    27  C          0.66833000       0.84902000       0.68772000
    28  C          0.33167000       0.15098000       0.31228000
    29  H          0.75670000       0.84630000       0.73620000
    30  H          0.24330000       0.15370000       0.26380000
    31  C          0.57543000       0.74852000       0.62504190
    32  C          0.42457000       0.25148000       0.37495810
    33  H          0.59830000       0.67560000       0.63090000
    34  H          0.40170000       0.32440000       0.36910000
    35  C          0.39313000       0.60032000       0.28202000
    36  C          0.60687000       0.39968000       0.71798000
    37  H          0.48230000       0.65120000       0.29670000
    38  H          0.51770000       0.34880000       0.70330000
    39  H          0.30950000       0.64760000       0.27790000
    40  H          0.69050000       0.35240000       0.72210000
    41  C          0.37353000       0.49772000       0.17532000
    42  C          0.62647000       0.50228000       0.82468000
    43  H          0.37470000       0.52880000       0.11880000
    44  H          0.62530000       0.47120000       0.88120000
    45  H          0.45690000       0.45040000       0.18090000
    46  H          0.54310000       0.54960000       0.81910000
    47  C          0.23523000       0.41872000       0.14130190
    48  C          0.76477000       0.58128000       0.85869810
    49  C          0.23784000       0.30073000       0.12372000
    50  C          0.76216000       0.69927000       0.87628000
    51  H          0.32820000       0.26870000       0.13540000
    52  H          0.67180000       0.73130000       0.86460000
    53  C          0.10855000       0.22833000       0.08893000
    54  C          0.89145000       0.77167000       0.91107000
    55  H          0.11060000       0.14720000       0.07640000
    56  H          0.88940000       0.85280000       0.92360000
    57  C          0.97825000       0.27474000       0.07283000
    58  C          0.02175000       0.72526000       0.92717000
    59  H          0.89010000       0.22590000       0.05050000
    60  H          0.10990000       0.77410000       0.94950000
    61  C          0.97486000       0.39044000       0.08873000
    62  C          0.02514000       0.60956000       0.91127000
    63  H          0.88430000       0.42190000       0.07630000
    64  H          0.11570000       0.57810000       0.92370000
    65  C          0.10174000       0.46163000       0.12253000
    66  C          0.89826000       0.53837000       0.87747000
    67  H          0.09780000       0.54230000       0.13330000
    68  H          0.90220000       0.45770000       0.86670000
    69  H          0.47430000       0.53720000       0.39320000
    70  H          0.52570000       0.46280000       0.60680000
    71  S          0.16502600       0.14804500       0.53074500
    72  S          0.83497400       0.85195500       0.46925500
    73  O          0.30481180       0.21287150       0.57258150
    74  O          0.69518820       0.78712850       0.42741850
    75  O          0.15213180       0.02408130       0.46891140
    76  O          0.84786820       0.97591870       0.53108860
    77  O          0.66477000       0.30452000       0.19642000
    78  O          0.33523000       0.69548000       0.80358000
    79  O          0.79427000       0.46945180       0.28232000
    80  O          0.20573000       0.53054820       0.71768000
    81  N          0.76967000       0.36602000       0.26342000
    82  N          0.23033000       0.63398000       0.73658000
    83  N          0.09732000       0.16295190       0.62941170
    84  N          0.90268000       0.83704810       0.37058830
    85  C          0.05332000       0.21147180       0.44675180
    86  C          0.94668000       0.78852820       0.55324820
    87  C          0.09313000       0.32342000       0.45372000
    88  C          0.90687000       0.67658000       0.54628000
    89  H          0.18260000       0.36500000       0.50090000
    90  H          0.81740000       0.63500000       0.49910000
    91  C          0.00213000       0.37352000       0.39172000
    92  C         -0.00213000       0.62648000       0.60828000
    93  H          0.02790000       0.44960000       0.39500000
    94  H          0.97210000       0.55040000       0.60500000
    95  C          0.87297000       0.31102000       0.32487190
    96  C          0.12703000       0.68898000       0.67512810
    97  C          0.83227000       0.19912000       0.31622000
    98  C          0.16773000       0.80088000       0.68378000
    99  H          0.74270000       0.15770000       0.26890000
   100  H          0.25730000       0.84230000       0.73110000
   101  C          0.92457000       0.14915190       0.37762000
   102  C          0.07543000       0.85084810       0.62238000
   103  H          0.89990000       0.07200000       0.37240000
   104  H          0.10010000       0.92800000       0.62760000
   105  C          0.10613000       0.27742000       0.71652000
   106  C          0.89387000       0.72258000       0.28348000
   107  H          0.01600000       0.31500000       0.70140000
   108  H         -0.01600000       0.68500000       0.29860000
   109  H          0.18880000       0.32900000       0.72070000
   110  H          0.81120000       0.67100000       0.27930000
   111  C          0.12633000       0.26193000       0.82322000
   112  C          0.87367000       0.73807000       0.17678000
   113  H          0.12100000       0.33850000       0.87940000
   114  H          0.87900000       0.66150000       0.12060000
   115  H          0.04540000       0.20720000       0.81690000
   116  H          0.95460000       0.79280000       0.18310000
   117  C          0.26713000       0.21592000       0.85855190
   118  C          0.73287000       0.78408000       0.14144810
   119  C          0.27144000       0.10523000       0.86372000
   120  C          0.72856000       0.89477000       0.13628000
   121  H          0.18320000       0.05690000       0.84330000
   122  H          0.81680000       0.94310000       0.15670000
   123  C          0.40165000       0.06373000       0.89793000
   124  C          0.59835000       0.93627000       0.10207000
   125  H          0.40280000      -0.01220000       0.90120000
   126  H          0.59720000       0.01220000       0.09880000
   127  C          0.52845000       0.13324000       0.92693000
   128  C          0.47155000       0.86676000       0.07307000
   129  H          0.61810000       0.10500000       0.95010000
   130  H          0.38190000       0.89500000       0.04990000
   131  C          0.52794000       0.24294000       0.92303000
   132  C          0.47206000       0.75706000       0.07697000
   133  H          0.61630000       0.29110000       0.94420000
   134  H          0.38370000       0.70890000       0.05580000
   135  C          0.39754000       0.28223000       0.88813000
   136  C          0.60246000       0.71777000       0.11187000
   137  H          0.39760000       0.35790000       0.88440000
   138  H          0.60240000       0.64210000       0.11560000
   139  H          0.02730000       0.12020000       0.61020000
   140  H          0.97270000       0.87980000       0.38980000
