data_UJEZIU01
_symmetry_space_group_name_H-M    'P1'
_symmetry_Int_Tables_number       1
loop_
_symmetry_equiv_pos_site_id
_symmetry_equiv_pos_as_xyz
1 x,y,z
_cell_length_a                   25.6183
_cell_length_b                   7.49249
_cell_length_c                   7.38298
_cell_angle_alpha                90.0
_cell_angle_beta                 95.3689
_cell_angle_gamma                90.0
loop_
_atom_site_label
_atom_site_type_symbol
_atom_site_fract_x
_atom_site_fract_y
_atom_site_fract_z
     1  S          0.21132300       0.52320100       0.17106900
     2  S          0.78867700       0.02320100       0.32893100
     3  S          0.78867700       0.47679900       0.82893100
     4  S          0.21132300       0.97679900       0.67106900
     5  O          0.24890800       0.43543000       0.29693000
     6  O          0.75109200       0.93543000       0.20307000
     7  O          0.75109200       0.56457000       0.70307000
     8  O          0.24890800       0.06457000       0.79693000
     9  O          0.18285800       0.67553000       0.22953000
    10  O          0.81714200       0.17553000       0.27047000
    11  O          0.81714200       0.32447000       0.77047000
    12  O          0.18285800       0.82447000       0.72953000
    13  O          0.01281800       0.03523000       0.80403000
    14  O          0.98718200       0.53523000       0.69597000
    15  O          0.98718200       0.96477000       0.19597000
    16  O          0.01281800       0.46477000       0.30403000
    17  O          0.06352900       0.82417000       0.91684000
    18  O          0.93647100       0.32417000       0.58316000
    19  O          0.93647100       0.17583000       0.08316000
    20  O          0.06352900       0.67583000       0.41684000
    21  N          0.05290100      -0.01804000       0.89003000
    22  N          0.94709900       0.48196000       0.60997000
    23  N          0.94709900       0.01804000       0.10997000
    24  N          0.05290100       0.51804000       0.39003000
    25  N          0.24171100       0.58844000       0.00304000
    26  N          0.75828900       0.08844000       0.49696000
    27  N          0.75828900       0.41156000      -0.00304000
    28  N          0.24171100       0.91156000       0.50304000
    29  C          0.16329110       0.36374000       0.09264000
    30  C          0.83670890       0.86374000       0.40736000
    31  C          0.83670890       0.63626000       0.90736000
    32  C          0.16329110       0.13626000       0.59264000
    33  C          0.17505110       0.18324000       0.11354000
    34  C          0.82494890       0.68324000       0.38646000
    35  C          0.82494890       0.81676000       0.88646000
    36  C          0.17505110       0.31676000       0.61354000
    37  H          0.20810000       0.14650000       0.17080000
    38  H          0.79190000       0.64650000       0.32920000
    39  H          0.79190000       0.85350000       0.82920000
    40  H          0.20810000       0.35350000       0.67080000
    41  C          0.13813110       0.05744000       0.04994000
    42  C          0.86186890       0.55744000       0.45006000
    43  C          0.86186890       0.94256000       0.95006000
    44  C          0.13813110       0.44256000       0.54994000
    45  H          0.14510000       0.93340000       0.06400000
    46  H          0.85490000       0.43340000       0.43600000
    47  H          0.85490000       0.06660000       0.93600000
    48  H          0.14510000       0.56660000       0.56400000
    49  C          0.09117110       0.11644000       0.96584000
    50  C          0.90882890       0.61644000       0.53416000
    51  C          0.90882890       0.88356000       0.03416000
    52  C          0.09117110       0.38356000       0.46584000
    53  C          0.07835110       0.29574000       0.94444000
    54  C          0.92164890       0.79574000       0.55556000
    55  C          0.92164890       0.70426000       0.05556000
    56  C          0.07835110       0.20426000       0.44444000
    57  H          0.04530000       0.33130000       0.88670000
    58  H          0.95470000       0.83130000       0.61330000
    59  H          0.95470000       0.66870000       0.11330000
    60  H          0.04530000       0.16870000       0.38670000
    61  C          0.11521110       0.42104000       0.00964000
    62  C          0.88478890       0.92104000       0.49036000
    63  C          0.88478890       0.57896000      -0.00964000
    64  C          0.11521110       0.07896000       0.50964000
    65  H          0.10770000       0.54480000      -0.00210000
    66  H          0.89230000       0.04480000       0.50210000
    67  H          0.89230000       0.45520000       0.00210000
    68  H          0.10770000       0.95520000       0.49790000
    69  C          0.28938110       0.50304000       0.94814000
    70  C          0.71061890       0.00304000       0.55186000
    71  C          0.71061890       0.49696000       0.05186000
    72  C          0.28938110      -0.00304000       0.44814000
    73  H          0.28040000       0.38940000       0.88420000
    74  H          0.71960000       0.88940000       0.61580000
    75  H          0.71960000       0.61060000       0.11580000
    76  H          0.28040000       0.11060000       0.38420000
    77  H          0.31380000       0.47670000       0.05670000
    78  H          0.68620000       0.97670000       0.44330000
    79  H          0.68620000       0.52330000       0.94330000
    80  H          0.31380000       0.02330000       0.55670000
    81  C          0.31497130       0.63054000       0.82235000
    82  C          0.68502870       0.13054000       0.67765000
    83  C          0.68502870       0.36946000       0.17765000
    84  C          0.31497130       0.86946000       0.32235000
    85  H          0.28930000       0.66130000       0.71830000
    86  H          0.71070000       0.16130000       0.78170000
    87  H          0.71070000       0.33870000       0.28170000
    88  H          0.28930000       0.83870000       0.21830000
    89  H          0.32460000       0.74200000       0.88920000
    90  H          0.67540000       0.24200000       0.61080000
    91  H          0.67540000       0.25800000       0.11080000
    92  H          0.32460000       0.75800000       0.38920000
    93  C          0.36325110       0.55224000       0.75124000
    94  C          0.63674890       0.05224000       0.74876000
    95  C          0.63674890       0.44776000       0.24876000
    96  C          0.36325110       0.94776000       0.25124000
    97  C          0.41337130       0.58945000       0.83135000
    98  C          0.58662870       0.08945000       0.66865000
    99  C          0.58662870       0.41055000       0.16865000
   100  C          0.41337130       0.91055000       0.33135000
   101  H          0.41770000       0.66740000       0.93310000
   102  H          0.58230000       0.16740000       0.56690000
   103  H          0.58230000       0.33260000       0.06690000
   104  H          0.41770000       0.83260000       0.43310000
   105  C          0.45669130       0.51465000       0.76475000
   106  C          0.54330870       0.01465000       0.73525000
   107  C          0.54330870       0.48535000       0.23525000
   108  C          0.45669130      -0.01465000       0.26475000
   109  H          0.49070000       0.54060000       0.82130000
   110  H          0.50930000       0.04060000       0.67870000
   111  H          0.50930000       0.45940000       0.17870000
   112  H          0.49070000       0.95940000       0.32130000
   113  C          0.45117130       0.40205000       0.61625000
   114  C          0.54882870       0.90205000       0.88375000
   115  C          0.54882870       0.59795000       0.38375000
   116  C          0.45117130       0.09795000       0.11625000
   117  H          0.48130000       0.35040000       0.57110000
   118  H          0.51870000       0.85040000       0.92890000
   119  H          0.51870000       0.64960000       0.42890000
   120  H          0.48130000       0.14960000       0.07110000
   121  C          0.40195130       0.36465000       0.53374000
   122  C          0.59804870       0.86465000       0.96626000
   123  C          0.59804870       0.63535000       0.46626000
   124  C          0.40195130       0.13535000       0.03374000
   125  H          0.39790000       0.28750000       0.43120000
   126  H          0.60210000       0.78750000       0.06880000
   127  H          0.60210000       0.71250000       0.56880000
   128  H          0.39790000       0.21250000       0.93120000
   129  C          0.35817120       0.44004000       0.60114000
   130  C          0.64182880       0.94004000       0.89886000
   131  C          0.64182880       0.55996000       0.39886000
   132  C          0.35817120       0.05996000       0.10114000
   133  H          0.32430000       0.41450000       0.54350000
   134  H          0.67570000       0.91450000       0.95650000
   135  H          0.67570000       0.58550000       0.45650000
   136  H          0.32430000       0.08550000       0.04350000
   137  H          0.22411200       0.64540000       0.92940000
   138  H          0.77588800       0.14540000       0.57060000
   139  H          0.77588800       0.35460000       0.07060000
   140  H          0.22411200       0.85460000       0.42940000
