data_UJEZIU03
_symmetry_space_group_name_H-M    'P1'
_symmetry_Int_Tables_number       1
loop_
_symmetry_equiv_pos_site_id
_symmetry_equiv_pos_as_xyz
1 x,y,z
_cell_length_a                   9.5165
_cell_length_b                   12.2617
_cell_length_c                   24.94914
_cell_angle_alpha                90.0
_cell_angle_beta                 96.2361
_cell_angle_gamma                90.0
loop_
_atom_site_label
_atom_site_type_symbol
_atom_site_fract_x
_atom_site_fract_y
_atom_site_fract_z
     1  S          0.39890130       0.16054100       0.23486600
     2  S          0.60109870       0.66054100       0.26513400
     3  S          0.60109870       0.83945900       0.76513400
     4  S          0.39890130       0.33945900       0.73486600
     5  O          0.51874000       0.11243000       0.21427170
     6  O          0.48126000       0.61243000       0.28572830
     7  O          0.48126000       0.88757000       0.78572830
     8  O          0.51874000       0.38757000       0.71427170
     9  O          0.41724000       0.25973000       0.26554160
    10  O          0.58276000       0.75973000       0.23445840
    11  O          0.58276000       0.74027000       0.73445840
    12  O          0.41724000       0.24027000       0.76554160
    13  O          0.06457000       0.87055000       0.40412000
    14  O          0.93543000       0.37055000       0.09588000
    15  O          0.93543000       0.12945000       0.59588000
    16  O          0.06457000       0.62945000       0.90412000
    17  O          0.14956000       0.74006000       0.36072000
    18  O          0.85044000       0.24006000       0.13928000
    19  O          0.85044000       0.25994000       0.63928000
    20  O          0.14956000       0.75994000       0.86072000
    21  N          0.13517000       0.83585000       0.37032000
    22  N          0.86483000       0.33585000       0.12968000
    23  N          0.86483000       0.16415000       0.62968000
    24  N          0.13517000       0.66415000       0.87032000
    25  N          0.28175000       0.18624000       0.18543190
    26  N          0.71825000       0.68624000       0.31456810
    27  N          0.71825000       0.81376000       0.81456810
    28  N          0.28175000       0.31376000       0.68543190
    29  C          0.32935000       0.06324000       0.27742000
    30  C          0.67065000       0.56324000       0.22258000
    31  C          0.67065000       0.93676000       0.72258000
    32  C          0.32935000       0.43676000       0.77742000
    33  C          0.36215000       0.95366000       0.27322000
    34  C          0.63785000       0.45366000       0.22678000
    35  C          0.63785000       0.04634000       0.72678000
    36  C          0.36215000       0.54634000       0.77322000
    37  H          0.42520000       0.93020000       0.24850000
    38  H          0.57480000       0.43020000       0.25150000
    39  H          0.57480000       0.06980000       0.75150000
    40  H          0.42520000       0.56980000       0.74850000
    41  C          0.30236000       0.87926000       0.30512000
    42  C          0.69764000       0.37926000       0.19488000
    43  C          0.69764000       0.12074000       0.69488000
    44  C          0.30236000       0.62074000       0.80512000
    45  H          0.32670000       0.80430000       0.30400000
    46  H          0.67330000       0.30430000       0.19600000
    47  H          0.67330000       0.19570000       0.69600000
    48  H          0.32670000       0.69570000       0.80400000
    49  C          0.20726000       0.91486000       0.33852000
    50  C          0.79274000       0.41486000       0.16148000
    51  C          0.79274000       0.08514000       0.66148000
    52  C          0.20726000       0.58514000       0.83852000
    53  C          0.17416000       0.02385000       0.34342000
    54  C          0.82584000       0.52385000       0.15658000
    55  C          0.82584000       0.97615000       0.65658000
    56  C          0.17416000       0.47615000       0.84342000
    57  H          0.11040000       0.04630000       0.36800000
    58  H          0.88960000       0.54630000       0.13200000
    59  H          0.88960000       0.95370000       0.63200000
    60  H          0.11040000       0.45370000       0.86800000
    61  C          0.23476000       0.09914000       0.31222000
    62  C          0.76524000       0.59914000       0.18778000
    63  C          0.76524000       0.90086000       0.68778000
    64  C          0.23476000       0.40086000       0.81222000
    65  H          0.21240000       0.17430000       0.31440000
    66  H          0.78760000       0.67430000       0.18560000
    67  H          0.78760000       0.82570000       0.68560000
    68  H          0.21240000       0.32570000       0.81440000
    69  C          0.24816000       0.10685000       0.14162000
    70  C          0.75184000       0.60685000       0.35838000
    71  C          0.75184000       0.89315000       0.85838000
    72  C          0.24816000       0.39315000       0.64162000
    73  H          0.16520000       0.06270000       0.14900000
    74  H          0.83480000       0.56270000       0.35100000
    75  H          0.83480000       0.93730000       0.85100000
    76  H          0.16520000       0.43730000       0.64900000
    77  H          0.32910000       0.05690000       0.13980000
    78  H          0.67090000       0.55690000       0.36020000
    79  H          0.67090000       0.94310000       0.86020000
    80  H          0.32910000       0.44310000       0.63980000
    81  C          0.21627000       0.16605000       0.08833000
    82  C          0.78373000       0.66605000       0.41167000
    83  C          0.78373000       0.83395000       0.91167000
    84  C          0.21627000       0.33395000       0.58833000
    85  H          0.18440000       0.11200000       0.06000000
    86  H          0.81560000       0.61200000       0.44000000
    87  H          0.81560000       0.88800000       0.94000000
    88  H          0.18440000       0.38800000       0.56000000
    89  H          0.13730000       0.21750000       0.09110000
    90  H          0.86270000       0.71750000       0.40890000
    91  H          0.86270000       0.78250000       0.90890000
    92  H          0.13730000       0.28250000       0.59110000
    93  C          0.33877000       0.22735000       0.07122000
    94  C          0.66123000       0.72735000       0.42878000
    95  C          0.66123000       0.77265000       0.92878000
    96  C          0.33877000       0.27265000       0.57122000
    97  C          0.33879000       0.33926000       0.06813000
    98  C          0.66121000       0.83926000       0.43187000
    99  C          0.66121000       0.66074000       0.93187000
   100  C          0.33879000       0.16074000       0.56813000
   101  H          0.25940000       0.37900000       0.07760000
   102  H          0.74060000       0.87900000       0.42240000
   103  H          0.74060000       0.62100000       0.92240000
   104  H          0.25940000       0.12100000       0.57760000
   105  C          0.45411100       0.39537000       0.05113000
   106  C          0.54588900       0.89537000       0.44887000
   107  C          0.54588900       0.60463000       0.94887000
   108  C          0.45411100       0.10463000       0.55113000
   109  H          0.45330000       0.47270000       0.04900000
   110  H          0.54670000       0.97270000       0.45100000
   111  H          0.54670000       0.52730000       0.95100000
   112  H          0.45330000       0.02730000       0.54900000
   113  C          0.56821000       0.33729000       0.03764000
   114  C          0.43179000       0.83729000       0.46236000
   115  C          0.43179000       0.66271000       0.96236000
   116  C          0.56821000       0.16271000       0.53764000
   117  H          0.64810000       0.37470000       0.02690000
   118  H          0.35190000       0.87470000       0.47310000
   119  H          0.35190000       0.62530000       0.97310000
   120  H          0.64810000       0.12530000       0.52690000
   121  C          0.56779000       0.22469000       0.03934000
   122  C          0.43221000       0.72469000       0.46066000
   123  C          0.43221000       0.77531000       0.96066000
   124  C          0.56779000       0.27531000       0.53934000
   125  H          0.64540000       0.18430000       0.02870000
   126  H          0.35460000       0.68430000       0.47130000
   127  H          0.35460000       0.81570000       0.97130000
   128  H          0.64540000       0.31570000       0.52870000
   129  C          0.45508000       0.17247000       0.05643000
   130  C          0.54492000       0.67247000       0.44357000
   131  C          0.54492000       0.82753000       0.94357000
   132  C          0.45508000       0.32753000       0.55643000
   133  H          0.45620000       0.09500000       0.05820000
   134  H          0.54380000       0.59500000       0.44180000
   135  H          0.54380000       0.90500000       0.94180000
   136  H          0.45620000       0.40500000       0.55820000
   137  H          0.21260000       0.22050000       0.19620000
   138  H          0.78740000       0.72050000       0.30380000
   139  H          0.78740000       0.77950000       0.80380000
   140  H          0.21260000       0.27950000       0.69620000
   141  S          0.89880140       0.93201100       0.23413600
   142  S          0.10119860       0.43201100       0.26586400
   143  S          0.10119860       0.06798900       0.76586400
   144  S          0.89880140       0.56798900       0.73413600
   145  O          0.01814000       0.98003000       0.21328180
   146  O          0.98186000       0.48003000       0.28671820
   147  O          0.98186000       0.01997000       0.78671820
   148  O          0.01814000       0.51997000       0.71328180
   149  O          0.91654000       0.83253000       0.26502170
   150  O          0.08346000       0.33253000       0.23497830
   151  O          0.08346000       0.16747000       0.73497830
   152  O          0.91654000       0.66747000       0.76502170
   153  O          0.56707000       0.22534000       0.40222000
   154  O          0.43293000       0.72534000       0.09778000
   155  O          0.43293000       0.77466000       0.59778000
   156  O          0.56707000       0.27466000       0.90222000
   157  O          0.65376000       0.35504000       0.35922000
   158  O          0.34624000       0.85504000       0.14078000
   159  O          0.34624000       0.64496000       0.64078000
   160  O          0.65376000       0.14496000       0.85922000
   161  N          0.63866000       0.25884000       0.36872000
   162  N          0.36134000       0.75884000       0.13128000
   163  N          0.36134000       0.74116000       0.63128000
   164  N          0.63866000       0.24116000       0.86872000
   165  N          0.78215000       0.90684000       0.18492000
   166  N          0.21785000       0.40684000       0.31508000
   167  N          0.21785000       0.09316000       0.81508000
   168  N          0.78215000       0.59316000       0.68492000
   169  C          0.82945000       0.02944000       0.27602000
   170  C          0.17055000       0.52944000       0.22398000
   171  C          0.17055000       0.97056000       0.72398000
   172  C          0.82945000       0.47056000       0.77602000
   173  C          0.86656000       0.13814000       0.27262000
   174  C          0.13344000       0.63814000       0.22738000
   175  C          0.13344000       0.86186000       0.72738000
   176  C          0.86656000       0.36186000       0.77262000
   177  H          0.93350000       0.16010000       0.24920000
   178  H          0.06650000       0.66010000       0.25080000
   179  H          0.06650000       0.83990000       0.75080000
   180  H          0.93350000       0.33990000       0.74920000
   181  C          0.80496000       0.21464000       0.30372000
   182  C          0.19504000       0.71464000       0.19628000
   183  C          0.19504000       0.78536000       0.69628000
   184  C          0.80496000       0.28536000       0.80372000
   185  H          0.82760000       0.28980000       0.30160000
   186  H          0.17240000       0.78980000       0.19840000
   187  H          0.17240000       0.71020000       0.69840000
   188  H          0.82760000       0.21020000       0.80160000
   189  C          0.71006000       0.17854000       0.33772000
   190  C          0.28994000       0.67854000       0.16228000
   191  C          0.28994000       0.82146000       0.66228000
   192  C          0.71006000       0.32146000       0.83772000
   193  C          0.67476000       0.07045000       0.34222000
   194  C          0.32524000       0.57045000       0.15778000
   195  C          0.32524000       0.92955000       0.65778000
   196  C          0.67476000       0.42955000       0.84222000
   197  H          0.60910000       0.04810000       0.36620000
   198  H          0.39090000       0.54810000       0.13380000
   199  H          0.39090000       0.95190000       0.63380000
   200  H          0.60910000       0.45190000       0.86620000
   201  C          0.73656000      -0.00446000       0.31132000
   202  C          0.26344000       0.49554000       0.18868000
   203  C          0.26344000       0.00446000       0.68868000
   204  C          0.73656000       0.50446000       0.81132000
   205  H          0.71530000       0.92020000       0.31420000
   206  H          0.28470000       0.42020000       0.18580000
   207  H          0.28470000       0.07980000       0.68580000
   208  H          0.71530000       0.57980000       0.81420000
   209  C          0.74967000       0.98605000       0.14092000
   210  C          0.25033000       0.48605000       0.35908000
   211  C          0.25033000       0.01395000       0.85908000
   212  C          0.74967000       0.51395000       0.64092000
   213  H          0.83190000       0.03440000       0.13850000
   214  H          0.16810000       0.53440000       0.36150000
   215  H          0.16810000       0.96560000       0.86150000
   216  H          0.83190000       0.46560000       0.63850000
   217  H          0.66830000       0.03170000       0.14840000
   218  H          0.33170000       0.53170000       0.35160000
   219  H          0.33170000       0.96830000       0.85160000
   220  H          0.66830000       0.46830000       0.64840000
   221  C          0.71457000       0.92646000       0.08773000
   222  C          0.28543000       0.42646000       0.41227000
   223  C          0.28543000       0.07354000       0.91227000
   224  C          0.71457000       0.57354000       0.58773000
   225  H          0.63400000       0.87660000       0.09090000
   226  H          0.36600000       0.37660000       0.40910000
   227  H          0.36600000       0.12340000       0.90910000
   228  H          0.63400000       0.62340000       0.59090000
   229  H          0.68420000       0.98040000       0.05930000
   230  H          0.31580000       0.48040000       0.44070000
   231  H          0.31580000       0.01960000       0.94070000
   232  H          0.68420000       0.51960000       0.55930000
   233  C          0.83617000       0.86125000       0.07032000
   234  C          0.16383000       0.36125000       0.42968000
   235  C          0.16383000       0.13875000       0.92968000
   236  C          0.83617000       0.63875000       0.57032000
   237  C          0.82449000       0.74956000       0.06183000
   238  C          0.17551000       0.24956000       0.43817000
   239  C          0.17551000       0.25044000       0.93817000
   240  C          0.82449000       0.75044000       0.56183000
   241  H          0.74000000       0.71230000       0.06790000
   242  H          0.26000000       0.21230000       0.43210000
   243  H          0.26000000       0.28770000       0.93210000
   244  H          0.74000000       0.78770000       0.56790000
   245  C          0.93611200       0.69298000       0.04453000
   246  C          0.06388800       0.19298000       0.45547000
   247  C          0.06388800       0.30702000       0.95547000
   248  C          0.93611200       0.80702000       0.54453000
   249  H          0.92690000       0.61660000       0.03870000
   250  H          0.07310000       0.11660000       0.46130000
   251  H          0.07310000       0.38340000       0.96130000
   252  H          0.92690000       0.88340000       0.53870000
   253  C          0.05691100       0.74181000       0.03573000
   254  C          0.94308900       0.24181000       0.46427000
   255  C          0.94308900       0.25819000       0.96427000
   256  C          0.05691100       0.75819000       0.53573000
   257  H          0.13200000       0.70070000       0.02370000
   258  H          0.86800000       0.20070000       0.47630000
   259  H          0.86800000       0.29930000       0.97630000
   260  H          0.13200000       0.79930000       0.52370000
   261  C          0.07129000       0.85211000       0.04424000
   262  C          0.92871000       0.35211000       0.45576000
   263  C          0.92871000       0.14789000       0.95576000
   264  C          0.07129000       0.64789000       0.54424000
   265  H          0.15720000       0.88750000       0.03860000
   266  H          0.84280000       0.38750000       0.46140000
   267  H          0.84280000       0.11250000       0.96140000
   268  H          0.15720000       0.61250000       0.53860000
   269  C          0.96048000       0.91177000       0.06093000
   270  C          0.03952000       0.41177000       0.43907000
   271  C          0.03952000       0.08823000       0.93907000
   272  C          0.96048000       0.58823000       0.56093000
   273  H          0.97010000       0.98820000       0.06590000
   274  H          0.02990000       0.48820000       0.43410000
   275  H          0.02990000       0.01180000       0.93410000
   276  H          0.97010000       0.51180000       0.56590000
   277  H          0.72360000       0.87650000       0.19320000
   278  H          0.27640000       0.37650000       0.30680000
   279  H          0.27640000       0.12350000       0.80680000
   280  H          0.72360000       0.62350000       0.69320000
