data_UJIRIO05
_symmetry_space_group_name_H-M    'P1'
_symmetry_Int_Tables_number       1
loop_
_symmetry_equiv_pos_site_id
_symmetry_equiv_pos_as_xyz
1 x,y,z
_cell_length_a                   10.61772
_cell_length_b                   9.3178219
_cell_length_c                   23.05585
_cell_angle_alpha                90.0
_cell_angle_beta                 90.0
_cell_angle_gamma                90.0
loop_
_atom_site_label
_atom_site_type_symbol
_atom_site_fract_x
_atom_site_fract_y
_atom_site_fract_z
     1  S          0.44451800       0.19705100       0.10968400
     2  S          0.05548200       0.80294900       0.60968400
     3  S          0.94451800       0.30294900       0.89031600
     4  S          0.55548200       0.69705100       0.39031600
     5  S          0.55548200       0.80294900       0.89031600
     6  S          0.94451800       0.19705100       0.39031600
     7  S          0.05548200       0.69705100       0.10968400
     8  S          0.44451800       0.30294900       0.60968400
     9  O          0.52992000       0.26593000       0.06938110
    10  O          0.97008000       0.73407000       0.56938110
    11  O          0.02992000       0.23407000       0.93061890
    12  O          0.47008000       0.76593000       0.43061890
    13  O          0.47008000       0.73407000       0.93061890
    14  O          0.02992000       0.26593000       0.43061890
    15  O          0.97008000       0.76593000       0.06938110
    16  O          0.52992000       0.23407000       0.56938110
    17  O          0.33582000       0.28513000       0.12437100
    18  O          0.16418000       0.71487000       0.62437100
    19  O          0.83582000       0.21487000       0.87562900
    20  O          0.66418000       0.78513000       0.37562900
    21  O          0.66418000       0.71487000       0.87562900
    22  O          0.83582000       0.28513000       0.37562900
    23  O          0.16418000       0.78513000       0.12437100
    24  O          0.33582000       0.21487000       0.62437100
    25  N          0.40903000       0.80697000       0.07554130
    26  N          0.09097000       0.19303000       0.57554130
    27  N          0.90903000       0.69303000       0.92445870
    28  N          0.59097000       0.30697000       0.42445870
    29  N          0.59097000       0.19303000       0.92445870
    30  N          0.90903000       0.80697000       0.42445870
    31  N          0.09097000       0.30697000       0.07554130
    32  N          0.40903000       0.69303000       0.57554130
    33  N          0.39554000       0.56136000       0.06276150
    34  N          0.10446000       0.43864000       0.56276150
    35  N          0.89554000       0.93864000       0.93723850
    36  N          0.60446000       0.06136000       0.43723850
    37  N          0.60446000       0.43864000       0.93723850
    38  N          0.89554000       0.56136000       0.43723850
    39  N          0.10446000       0.06136000       0.06276150
    40  N          0.39554000       0.93864000       0.56276150
    41  N          0.38913000       0.04773000       0.09000130
    42  N          0.11087000       0.95227000       0.59000130
    43  N          0.88913000       0.45227000       0.90999870
    44  N          0.61087000       0.54773000       0.40999870
    45  N          0.61087000       0.95227000       0.90999870
    46  N          0.88913000       0.04773000       0.40999870
    47  N          0.11087000       0.54773000       0.09000130
    48  N          0.38913000       0.45227000       0.59000130
    49  C          0.59664000       0.68036000       0.05535160
    50  C          0.90336000       0.31964000       0.55535160
    51  C          0.09664000       0.81964000       0.94464840
    52  C          0.40336000       0.18036000       0.44464840
    53  C          0.40336000       0.31964000       0.94464840
    54  C          0.09664000       0.68036000       0.44464840
    55  C          0.90336000       0.18036000       0.05535160
    56  C          0.59664000       0.81964000       0.55535160
    57  H          0.63990000       0.59500000       0.04910000
    58  H          0.86010000       0.40500000       0.54910000
    59  H          0.13990000       0.90500000       0.95090000
    60  H          0.36010000       0.09500000       0.45090000
    61  H          0.36010000       0.40500000       0.95090000
    62  H          0.13990000       0.59500000       0.45090000
    63  H          0.86010000       0.09500000       0.04910000
    64  H          0.63990000       0.90500000       0.54910000
    65  C          0.53073000       0.16654000       0.17441160
    66  C          0.96927000       0.83346000       0.67441160
    67  C          0.03073000       0.33346000       0.82558840
    68  C          0.46927000       0.66654000       0.32558840
    69  C          0.46927000       0.83346000       0.82558840
    70  C          0.03073000       0.16654000       0.32558840
    71  C          0.96927000       0.66654000       0.17441160
    72  C          0.53073000       0.33346000       0.67441160
    73  C          0.65944000       0.80856000       0.05584160
    74  C          0.84056000       0.19144000       0.55584160
    75  C          0.15944000       0.69144000       0.94415840
    76  C          0.34056000       0.30856000       0.44415840
    77  C          0.34056000       0.19144000       0.94415840
    78  C          0.15944000       0.80856000       0.44415840
    79  C          0.84056000       0.30856000       0.05584160
    80  C          0.65944000       0.69144000       0.55584160
    81  H          0.74580000       0.80940000       0.04930000
    82  H          0.75420000       0.19060000       0.54930000
    83  H          0.24580000       0.69060000       0.95070000
    84  H          0.25420000       0.30940000       0.45070000
    85  H          0.25420000       0.19060000       0.95070000
    86  H          0.24580000       0.80940000       0.45070000
    87  H          0.75420000       0.30940000       0.04930000
    88  H          0.74580000       0.69060000       0.54930000
    89  C          0.46903000       0.93796000       0.07663150
    90  C          0.03097000       0.06204000       0.57663150
    91  C          0.96903000       0.56204000       0.92336850
    92  C          0.53097000       0.43796000       0.42336850
    93  C          0.53097000       0.06204000       0.92336850
    94  C          0.96903000       0.93796000       0.42336850
    95  C          0.03097000       0.43796000       0.07663150
    96  C          0.46903000       0.56204000       0.57663150
    97  C          0.59753000       0.93816000       0.06589150
    98  C          0.90247000       0.06184000       0.56589150
    99  C          0.09753000       0.56184000       0.93410850
   100  C          0.40247000       0.43816000       0.43410850
   101  C          0.40247000       0.06184000       0.93410850
   102  C          0.09753000       0.93816000       0.43410850
   103  C          0.90247000       0.43816000       0.06589150
   104  C          0.59753000       0.56184000       0.56589150
   105  H          0.64210000       0.02410000       0.06540000
   106  H          0.85790000       0.97590000       0.56540000
   107  H          0.14210000       0.47590000       0.93460000
   108  H          0.35790000       0.52410000       0.43460000
   109  H          0.35790000       0.97590000       0.93460000
   110  H          0.14210000       0.02410000       0.43460000
   111  H          0.85790000       0.52410000       0.06540000
   112  H          0.64210000       0.47590000       0.56540000
   113  C          0.46623000       0.67946000       0.06448150
   114  C          0.03377000       0.32054000       0.56448150
   115  C          0.96623000       0.82054000       0.93551850
   116  C          0.53377000       0.17946000       0.43551850
   117  C          0.53377000       0.32054000       0.93551850
   118  C          0.96623000       0.67946000       0.43551850
   119  C          0.03377000       0.17946000       0.06448150
   120  C          0.46623000       0.82054000       0.56448150
   121  C          0.65624000       0.13005000       0.27852160
   122  C          0.84376000       0.86995000       0.77852160
   123  C          0.15624000       0.36995000       0.72147840
   124  C          0.34376000       0.63005000       0.22147840
   125  C          0.34376000       0.86995000       0.72147840
   126  C          0.15624000       0.13005000       0.22147840
   127  C          0.84376000       0.63005000       0.27852160
   128  C          0.65624000       0.36995000       0.77852160
   129  H          0.69820000       0.11780000       0.31360000
   130  H          0.80180000       0.88220000       0.81360000
   131  H          0.19820000       0.38220000       0.68640000
   132  H          0.30180000       0.61780000       0.18640000
   133  H          0.30180000       0.88220000       0.68640000
   134  H          0.19820000       0.11780000       0.18640000
   135  H          0.80180000       0.61780000       0.31360000
   136  H          0.69820000       0.38220000       0.81360000
   137  C          0.69944000       0.23124000       0.23865180
   138  C          0.80056000       0.76876000       0.73865180
   139  C          0.19944000       0.26876000       0.76134820
   140  C          0.30056000       0.73124000       0.26134820
   141  C          0.30056000       0.76876000       0.76134820
   142  C          0.19944000       0.23124000       0.26134820
   143  C          0.80056000       0.73124000       0.23865180
   144  C          0.69944000       0.26876000       0.73865180
   145  H          0.76960000       0.28690000       0.24730000
   146  H          0.73040000       0.71310000       0.74730000
   147  H          0.26960000       0.21310000       0.75270000
   148  H          0.23040000       0.78690000       0.25270000
   149  H          0.23040000       0.71310000       0.75270000
   150  H          0.26960000       0.28690000       0.25270000
   151  H          0.73040000       0.78690000       0.24730000
   152  H          0.76960000       0.21310000       0.74730000
   153  C          0.48784000       0.06534000       0.21429160
   154  C          0.01216000       0.93466000       0.71429160
   155  C         -0.01216000       0.43466000       0.78570840
   156  C          0.51216000       0.56534000       0.28570840
   157  C          0.51216000       0.93466000       0.78570840
   158  C         -0.01216000       0.06534000       0.28570840
   159  C          0.01216000       0.56534000       0.21429160
   160  C          0.48784000       0.43466000       0.71429160
   161  H          0.41700000       0.01000000       0.20610000
   162  H          0.08300000      -0.01000000       0.70610000
   163  H          0.91700000       0.49000000       0.79390000
   164  H          0.58300000       0.51000000       0.29390000
   165  H          0.58300000      -0.01000000       0.79390000
   166  H          0.91700000       0.01000000       0.29390000
   167  H          0.08300000       0.51000000       0.20610000
   168  H          0.41700000       0.49000000       0.70610000
   169  C          0.55164000       0.04794000       0.26619170
   170  C          0.94836000       0.95206000       0.76619170
   171  C          0.05164000       0.45206000       0.73380830
   172  C          0.44836000       0.54794000       0.23380830
   173  C          0.44836000       0.95206000       0.73380830
   174  C          0.05164000       0.04794000       0.23380830
   175  C          0.94836000       0.54794000       0.26619170
   176  C          0.55164000       0.45206000       0.76619170
   177  H          0.52370000       0.98040000       0.29290000
   178  H          0.97630000       0.01960000       0.79290000
   179  H          0.02370000       0.51960000       0.70710000
   180  H          0.47630000       0.48040000       0.20710000
   181  H          0.47630000       0.01960000       0.70710000
   182  H          0.02370000       0.98040000       0.20710000
   183  H          0.97630000       0.48040000       0.29290000
   184  H          0.52370000       0.51960000       0.79290000
   185  C          0.63764000       0.24874000       0.18607160
   186  C          0.86236000       0.75126000       0.68607160
   187  C          0.13764000       0.25126000       0.81392840
   188  C          0.36236000       0.74874000       0.31392840
   189  C          0.36236000       0.75126000       0.81392840
   190  C          0.13764000       0.24874000       0.31392840
   191  C          0.86236000       0.74874000       0.18607160
   192  C          0.63764000       0.25126000       0.68607160
   193  H          0.66710000       0.31440000       0.15890000
   194  H          0.83290000       0.68560000       0.65890000
   195  H          0.16710000       0.18560000       0.84110000
   196  H          0.33290000       0.81440000       0.34110000
   197  H          0.33290000       0.68560000       0.84110000
   198  H          0.16710000       0.31440000       0.34110000
   199  H          0.83290000       0.81440000       0.15890000
   200  H          0.66710000       0.18560000       0.65890000
   201  H          0.33340000       0.79970000       0.08561500
   202  H          0.16660000       0.20030000       0.58561500
   203  H          0.83340000       0.70030000       0.91438500
   204  H          0.66660000       0.29970000       0.41438500
   205  H          0.66660000       0.20030000       0.91438500
   206  H          0.83340000       0.79970000       0.41438500
   207  H          0.16660000       0.29970000       0.08561500
   208  H          0.33340000       0.70030000       0.58561500
   209  H          0.32260000       0.57150000       0.07420000
   210  H          0.17740000       0.42850000       0.57420000
   211  H          0.82260000       0.92850000       0.92580000
   212  H          0.67740000       0.07150000       0.42580000
   213  H          0.67740000       0.42850000       0.92580000
   214  H          0.82260000       0.57150000       0.42580000
   215  H          0.17740000       0.07150000       0.07420000
   216  H          0.32260000       0.92850000       0.57420000
   217  H          0.43730000       0.48060000       0.06211500
   218  H          0.06270000       0.51940000       0.56211500
   219  H          0.93730000       0.01940000       0.93788500
   220  H          0.56270000       0.98060000       0.43788500
   221  H          0.56270000       0.51940000       0.93788500
   222  H          0.93730000       0.48060000       0.43788500
   223  H          0.06270000       0.98060000       0.06211500
   224  H          0.43730000       0.01940000       0.56211500
