data_UJIRIO02
_symmetry_space_group_name_H-M    'P1'
_symmetry_Int_Tables_number       1
loop_
_symmetry_equiv_pos_site_id
_symmetry_equiv_pos_as_xyz
1 x,y,z
_cell_length_a                   12.109915
_cell_length_b                   10.792412
_cell_length_c                   17.4642
_cell_angle_alpha                90.0
_cell_angle_beta                 97.3182
_cell_angle_gamma                90.0
loop_
_atom_site_label
_atom_site_type_symbol
_atom_site_fract_x
_atom_site_fract_y
_atom_site_fract_z
     1  S          0.78010600       0.22538700       0.24601400
     2  S          0.21989400       0.72538700       0.25398600
     3  S          0.21989400       0.77461300       0.75398600
     4  S          0.78010600       0.27461300       0.74601400
     5  O          0.86073160       0.32022190       0.27158110
     6  O          0.13926840       0.82022190       0.22841890
     7  O          0.13926840       0.67977810       0.72841890
     8  O          0.86073160       0.17977810       0.77158110
     9  O          0.75725170       0.13734180       0.30448120
    10  O          0.24274830       0.63734180       0.19551880
    11  O          0.24274830       0.86265820       0.69551880
    12  O          0.75725170       0.36265820       0.80448120
    13  N          0.85981180       0.12292000       0.05401130
    14  N          0.14018820       0.62292000       0.44598870
    15  N          0.14018820       0.87708000       0.94598870
    16  N          0.85981180       0.37708000       0.55401130
    17  H          0.84650000       0.03840000       0.05860000
    18  H          0.15350000       0.53840000       0.44140000
    19  H          0.15350000       0.96160000       0.94140000
    20  H          0.84650000       0.46160000       0.55860000
    21  C          0.84072000       0.20373000       0.11185160
    22  C          0.15928000       0.70373000       0.38814840
    23  C          0.15928000       0.79627000       0.88814840
    24  C          0.84072000       0.29627000       0.61185160
    25  C          0.85442000       0.32873000       0.09811180
    26  C          0.14558000       0.82873000       0.40188820
    27  C          0.14558000       0.67127000       0.90188820
    28  C          0.85442000       0.17127000       0.59811180
    29  H          0.84080000       0.38760000       0.13550000
    30  H          0.15920000       0.88760000       0.36450000
    31  H          0.15920000       0.61240000       0.86450000
    32  H          0.84080000       0.11240000       0.63550000
    33  C          0.88812000       0.36633000       0.02923180
    34  C          0.11188000       0.86633000       0.47076820
    35  C          0.11188000       0.63367000       0.97076820
    36  C          0.88812000       0.13367000       0.52923180
    37  H          0.89780000       0.45140000       0.02080000
    38  H          0.10220000       0.95140000       0.47920000
    39  H          0.10220000       0.54860000       0.97920000
    40  H          0.89780000       0.04860000       0.52080000
    41  C          0.90812000       0.28423000       0.97287820
    42  C          0.09188000       0.78423000       0.52712180
    43  C          0.09188000       0.71577000       0.02712180
    44  C          0.90812000       0.21577000       0.47287820
    45  H          0.93320000       0.31180000       0.92710000
    46  H          0.06680000       0.81180000       0.57290000
    47  H          0.06680000       0.68820000       0.07290000
    48  H          0.93320000       0.18820000       0.42710000
    49  C          0.89012000       0.15823000       0.98511840
    50  C          0.10988000       0.65823000       0.51488160
    51  C          0.10988000       0.84177000       0.01488160
    52  C          0.89012000       0.34177000       0.48511840
    53  N          0.90162000       0.07022000       0.93209860
    54  N          0.09838000       0.57022000       0.56790140
    55  N          0.09838000       0.92978000       0.06790140
    56  N          0.90162000       0.42978000       0.43209860
    57  H          0.89360000       0.10310000       0.88110000
    58  H          0.10640000       0.60310000       0.61890000
    59  H          0.10640000       0.89690000       0.11890000
    60  H          0.89360000       0.39690000       0.38110000
    61  H          0.86080000      -0.00800000       0.93480000
    62  H          0.13920000       0.49200000       0.56520000
    63  H          0.13920000       0.00800000       0.06520000
    64  H          0.86080000       0.50800000       0.43480000
    65  N          0.81062190       0.14512000       0.17583130
    66  N          0.18937810       0.64512000       0.32416870
    67  N          0.18937810       0.85488000       0.82416870
    68  N          0.81062190       0.35488000       0.67583130
    69  C          0.65272000       0.30113000       0.21622170
    70  C          0.34728000       0.80113000       0.28377830
    71  C          0.34728000       0.69887000       0.78377830
    72  C          0.65272000       0.19887000       0.71622170
    73  C          0.64513000       0.42903000       0.21622000
    74  C          0.35487000       0.92903000       0.28378000
    75  C          0.35487000       0.57097000       0.78378000
    76  C          0.64513000       0.07097000       0.71622000
    77  H          0.70880000       0.47740000       0.23060000
    78  H          0.29120000       0.97740000       0.26940000
    79  H          0.29120000       0.52260000       0.76940000
    80  H          0.70880000       0.02260000       0.73060000
    81  C          0.54283000       0.48564000       0.19502000
    82  C          0.45717000       0.98564000       0.30498000
    83  C          0.45717000       0.51436000       0.80498000
    84  C          0.54283000       0.01436000       0.69502000
    85  H          0.53750000       0.57250000       0.19370000
    86  H          0.46250000       0.07250000       0.30630000
    87  H          0.46250000       0.42750000       0.80630000
    88  H          0.53750000       0.92750000       0.69370000
    89  C          0.44983000       0.41454000       0.17582000
    90  C          0.55017000       0.91454000       0.32418000
    91  C          0.55017000       0.58546000       0.82418000
    92  C          0.44983000       0.08546000       0.67582000
    93  H          0.38020000       0.45310000       0.16350000
    94  H          0.61980000       0.95310000       0.33650000
    95  H          0.61980000       0.54690000       0.83650000
    96  H          0.38020000       0.04690000       0.66350000
    97  C          0.45663000       0.28744000       0.17452000
    98  C          0.54337000       0.78744000       0.32548000
    99  C          0.54337000       0.71256000       0.82548000
   100  C          0.45663000       0.21256000       0.67452000
   101  H          0.39220000       0.23990000       0.16030000
   102  H          0.60780000       0.73990000       0.33970000
   103  H          0.60780000       0.76010000       0.83970000
   104  H          0.39220000       0.26010000       0.66030000
   105  C          0.55833000       0.22963000       0.19392000
   106  C          0.44167000       0.72963000       0.30608000
   107  C          0.44167000       0.77037000       0.80608000
   108  C          0.55833000       0.27037000       0.69392000
   109  H          0.56360000       0.14280000       0.19190000
   110  H          0.43640000       0.64280000       0.30810000
   111  H          0.43640000       0.85720000       0.80810000
   112  H          0.56360000       0.35720000       0.69190000
   113  S          0.75582600       0.79053800       0.01737400
   114  S          0.24417400       0.29053800       0.48262600
   115  S          0.24417400       0.20946200       0.98262600
   116  S          0.75582600       0.70946200       0.51737400
   117  O          0.75470170       0.87332000       0.95200880
   118  O          0.24529830       0.37332000       0.54799120
   119  O          0.24529830       0.12668000       0.04799120
   120  O          0.75470170       0.62668000       0.45200880
   121  O          0.78731190       0.66472000       0.00272130
   122  O          0.21268810       0.16472000       0.49727870
   123  O          0.21268810       0.33528000      -0.00272130
   124  O          0.78731190       0.83528000       0.50272130
   125  N          0.85073190       0.87372000       0.21938130
   126  N          0.14926810       0.37372000       0.28061870
   127  N          0.14926810       0.12628000       0.78061870
   128  N          0.85073190       0.62628000       0.71938130
   129  H          0.82320000       0.95980000       0.20590000
   130  H          0.17680000       0.45980000       0.29410000
   131  H          0.17680000       0.04020000       0.79410000
   132  H          0.82320000       0.54020000       0.70590000
   133  C          0.85162000       0.79673000       0.15665170
   134  C          0.14838000       0.29673000       0.34334830
   135  C          0.14838000       0.20327000       0.84334830
   136  C          0.85162000       0.70327000       0.65665170
   137  C          0.87793000       0.67373000       0.17031190
   138  C          0.12207000       0.17373000       0.32968810
   139  C          0.12207000       0.32627000       0.82968810
   140  C          0.87793000       0.82627000       0.67031190
   141  H          0.88060000       0.61850000       0.12890000
   142  H          0.11940000       0.11850000       0.37110000
   143  H          0.11940000       0.38150000       0.87110000
   144  H          0.88060000       0.88150000       0.62890000
   145  C          0.90022000       0.63253000       0.24612000
   146  C          0.09978000       0.13253000       0.25388000
   147  C          0.09978000       0.36747000       0.75388000
   148  C          0.90022000       0.86747000       0.74612000
   149  H          0.91850000       0.54870000       0.25520000
   150  H          0.08150000       0.04870000       0.24480000
   151  H          0.08150000       0.45130000       0.74480000
   152  H          0.91850000       0.95130000       0.75520000
   153  C          0.89652000       0.70963000       0.30767190
   154  C          0.10348000       0.20963000       0.19232810
   155  C          0.10348000       0.29037000       0.69232810
   156  C          0.89652000       0.79037000       0.80767190
   157  H          0.91080000       0.67910000       0.35840000
   158  H          0.08920000       0.17910000       0.14160000
   159  H          0.08920000       0.32090000       0.64160000
   160  H          0.91080000       0.82090000       0.85840000
   161  C          0.87112000       0.83443000       0.29397170
   162  C          0.12888000       0.33443000       0.20602830
   163  C          0.12888000       0.16557000       0.70602830
   164  C          0.87112000       0.66557000       0.79397170
   165  N          0.86682000       0.91683000       0.35098150
   166  N          0.13318000       0.41683000       0.14901850
   167  N          0.13318000       0.08317000       0.64901850
   168  N          0.86682000       0.58317000       0.85098150
   169  H          0.84100000      -0.01080000       0.33890000
   170  H          0.15900000       0.48920000       0.16110000
   171  H          0.15900000       0.01080000       0.66110000
   172  H          0.84100000       0.51080000       0.83890000
   173  H          0.85430000       0.88420000       0.39890000
   174  H          0.14570000       0.38420000       0.10110000
   175  H          0.14570000       0.11580000       0.60110000
   176  H          0.85430000       0.61580000       0.89890000
   177  N          0.82753190       0.85822000       0.08729140
   178  N          0.17246810       0.35822000       0.41270860
   179  N          0.17246810       0.14178000       0.91270860
   180  N          0.82753190       0.64178000       0.58729140
   181  C          0.61753000       0.78613000       0.04083180
   182  C          0.38247000       0.28613000       0.45916820
   183  C          0.38247000       0.21387000       0.95916820
   184  C          0.61753000       0.71387000       0.54083180
   185  C          0.57533000       0.89044000       0.07193000
   186  C          0.42467000       0.39044000       0.42807000
   187  C          0.42467000       0.10956000       0.92807000
   188  C          0.57533000       0.60956000       0.57193000
   189  H          0.62030000       0.96100000       0.08210000
   190  H          0.37970000       0.46100000       0.41790000
   191  H          0.37970000       0.03900000       0.91790000
   192  H          0.62030000       0.53900000       0.58210000
   193  C          0.46613000       0.89085000       0.08793000
   194  C          0.53387000       0.39085000       0.41207000
   195  C          0.53387000       0.10915000       0.91207000
   196  C          0.46613000       0.60915000       0.58793000
   197  H          0.43710000       0.96150000       0.10960000
   198  H          0.56290000       0.46150000       0.39040000
   199  H          0.56290000       0.03850000       0.89040000
   200  H          0.43710000       0.53850000       0.60960000
   201  C          0.40093000       0.78925000       0.07253000
   202  C          0.59907000       0.28925000       0.42747000
   203  C          0.59907000       0.21075000       0.92747000
   204  C          0.40093000       0.71075000       0.57253000
   205  H          0.32700000       0.78970000       0.08380000
   206  H          0.67300000       0.28970000       0.41620000
   207  H          0.67300000       0.21030000       0.91620000
   208  H          0.32700000       0.71030000       0.58380000
   209  C          0.44184000       0.68765000       0.04103000
   210  C          0.55816000       0.18765000       0.45897000
   211  C          0.55816000       0.31235000       0.95897000
   212  C          0.44184000       0.81235000       0.54103000
   213  H          0.39550000       0.61840000       0.02950000
   214  H          0.60450000       0.11840000       0.47050000
   215  H          0.60450000       0.38160000       0.97050000
   216  H          0.39550000       0.88160000       0.52950000
   217  C          0.55213000       0.68414000       0.02533000
   218  C          0.44787000       0.18414000       0.47467000
   219  C          0.44787000       0.31586000       0.97467000
   220  C          0.55213000       0.81586000       0.52533000
   221  H          0.58080000       0.61260000       0.00430000
   222  H          0.41920000       0.11260000       0.49570000
   223  H          0.41920000       0.38740000      -0.00430000
   224  H          0.58080000       0.88740000       0.50430000
