data_UJIRIO
_symmetry_space_group_name_H-M    'P1'
_symmetry_Int_Tables_number       1
loop_
_symmetry_equiv_pos_site_id
_symmetry_equiv_pos_as_xyz
1 x,y,z
_cell_length_a                   8.4795
_cell_length_b                   8.9585
_cell_length_c                   14.8948
_cell_angle_alpha                90.0
_cell_angle_beta                 91.8561
_cell_angle_gamma                90.0
loop_
_atom_site_label
_atom_site_type_symbol
_atom_site_fract_x
_atom_site_fract_y
_atom_site_fract_z
     1  N          0.57935180       0.97312830       0.13972110
     2  N          0.42064820       0.47312830       0.36027890
     3  N          0.42064820       0.02687170       0.86027890
     4  N          0.57935180       0.52687170       0.63972110
     5  H          0.51970000       0.97710000       0.18490000
     6  H          0.48030000       0.47710000       0.31510000
     7  H          0.48030000       0.02290000       0.81510000
     8  H          0.51970000       0.52290000       0.68490000
     9  O          0.64139160       0.42990160       0.07140100
    10  O          0.35860840       0.92990160       0.42859900
    11  O          0.35860840       0.57009840       0.92859900
    12  O          0.64139160       0.07009840       0.57140100
    13  O          0.64703160       0.46300160       0.23219110
    14  O          0.35296840       0.96300160       0.26780890
    15  O          0.35296840       0.53699840       0.76780890
    16  O          0.64703160       0.03699840       0.73219110
    17  C          0.65942000       0.09872000       0.11838130
    18  C          0.34058000       0.59872000       0.38161870
    19  C          0.34058000       0.90128000       0.88161870
    20  C          0.65942000       0.40128000       0.61838130
    21  C          0.75093000       0.09212000       0.04303140
    22  C          0.24907000       0.59212000       0.45696860
    23  C          0.24907000       0.90788000       0.95696860
    24  C          0.75093000       0.40788000       0.54303140
    25  H          0.80880000       0.17680000       0.02440000
    26  H          0.19120000       0.67680000       0.47560000
    27  H          0.19120000       0.82320000       0.97560000
    28  H          0.80880000       0.32320000       0.52440000
    29  C          0.75653000       0.96037000      -0.00432150
    30  C          0.24347000       0.46037000       0.50432150
    31  C          0.24347000       0.03963000       0.00432150
    32  C          0.75653000       0.53963000       0.49567850
    33  H          0.81940000       0.95600000       0.94410000
    34  H          0.18060000       0.45600000       0.55590000
    35  H          0.18060000       0.04400000       0.05590000
    36  H          0.81940000       0.54400000       0.44410000
    37  C          0.67513000       0.83577000       0.01966150
    38  C          0.32487000       0.33577000       0.48033850
    39  C          0.32487000       0.16423000       0.98033850
    40  C          0.67513000       0.66423000       0.51966150
    41  H          0.68160000       0.74630000       0.98580000
    42  H          0.31840000       0.24630000       0.51420000
    43  H          0.31840000       0.25370000       0.01420000
    44  H          0.68160000       0.75370000       0.48580000
    45  C          0.58302000       0.84298000       0.09496140
    46  C          0.41698000       0.34298000       0.40503860
    47  C          0.41698000       0.15702000       0.90503860
    48  C          0.58302000       0.65702000       0.59496140
    49  N          0.49572000       0.73028810       0.12382130
    50  N          0.50428000       0.23028810       0.37617870
    51  N          0.50428000       0.26971190       0.87617870
    52  N          0.49572000       0.76971190       0.62382130
    53  H          0.50950000       0.64560000       0.10120000
    54  H          0.49050000       0.14560000       0.39880000
    55  H          0.49050000       0.35440000       0.89880000
    56  H          0.50950000       0.85440000       0.60120000
    57  H          0.45540000       0.73740000       0.17600000
    58  H          0.54460000       0.23740000       0.32400000
    59  H          0.54460000       0.26260000       0.82400000
    60  H          0.45540000       0.76260000       0.67600000
    61  N          0.63728180       0.21103180       0.17761110
    62  N          0.36271820       0.71103180       0.32238890
    63  N          0.36271820       0.78896820       0.82238890
    64  N          0.63728180       0.28896820       0.67761110
    65  S          0.69369500       0.37351500       0.15714300
    66  S          0.30630500       0.87351500       0.34285700
    67  S          0.30630500       0.62648500       0.84285700
    68  S          0.69369500       0.12648500       0.65714300
    69  C          0.90182000       0.37872000       0.15962130
    70  C          0.09818000       0.87872000       0.34037870
    71  C          0.09818000       0.62128000       0.84037870
    72  C          0.90182000       0.12128000       0.65962130
    73  C         -0.01317000       0.27503000       0.20806170
    74  C          0.01317000       0.77503000       0.29193830
    75  C          0.01317000       0.72497000       0.79193830
    76  C         -0.01317000       0.22497000       0.70806170
    77  H          0.93490000       0.19820000       0.23970000
    78  H          0.06510000       0.69820000       0.26030000
    79  H          0.06510000       0.80180000       0.76030000
    80  H          0.93490000       0.30180000       0.73970000
    81  C          0.15113000       0.28423000       0.21022190
    82  C          0.84887000       0.78423000       0.28977810
    83  C          0.84887000       0.71577000       0.78977810
    84  C          0.15113000       0.21577000       0.71022190
    85  H          0.21230000       0.21230000       0.24280000
    86  H          0.78770000       0.71230000       0.25720000
    87  H          0.78770000       0.78770000       0.75720000
    88  H          0.21230000       0.28770000       0.74280000
    89  C          0.22383000       0.39613000       0.16579160
    90  C          0.77617000       0.89613000       0.33420840
    91  C          0.77617000       0.60387000       0.83420840
    92  C          0.22383000       0.10387000       0.66579160
    93  H          0.33570000       0.40260000       0.16820000
    94  H          0.66430000       0.90260000       0.33180000
    95  H          0.66430000       0.59740000       0.83180000
    96  H          0.33570000       0.09740000       0.66820000
    97  C          0.13833000       0.49893000       0.11784160
    98  C          0.86167000      -0.00107000       0.38215840
    99  C          0.86167000       0.50107000       0.88215840
   100  C          0.13833000       0.00107000       0.61784160
   101  H          0.19040000       0.57640000       0.08690000
   102  H          0.80960000       0.07640000       0.41310000
   103  H          0.80960000       0.42360000       0.91310000
   104  H          0.19040000       0.92360000       0.58690000
   105  C          0.97563000       0.49103000       0.11403150
   106  C          0.02437000      -0.00897000       0.38596850
   107  C          0.02437000       0.50897000       0.88596850
   108  C          0.97563000       0.00897000       0.61403150
   109  H          0.91530000       0.56230000       0.08040000
   110  H          0.08470000       0.06230000       0.41960000
   111  H          0.08470000       0.43770000       0.91960000
   112  H          0.91530000       0.93770000       0.58040000
