data_UKEMEE
_symmetry_space_group_name_H-M    'P1'
_symmetry_Int_Tables_number       1
loop_
_symmetry_equiv_pos_site_id
_symmetry_equiv_pos_as_xyz
1 x,y,z
_cell_length_a                   10.02404
_cell_length_b                   9.97404
_cell_length_c                   16.90306
_cell_angle_alpha                90.0
_cell_angle_beta                 90.1854
_cell_angle_gamma                90.0
loop_
_atom_site_label
_atom_site_type_symbol
_atom_site_fract_x
_atom_site_fract_y
_atom_site_fract_z
     1  P          0.85294400       0.03966400       0.65846200
     2  P          0.64705600       0.53966400       0.84153800
     3  P          0.14705600       0.96033600       0.34153800
     4  P          0.35294400       0.46033600       0.15846200
     5  O          0.77673110       0.97197900       0.72188600
     6  O          0.72326890       0.47197900       0.77811400
     7  O          0.22326890       0.02802100       0.27811400
     8  O          0.27673110       0.52802100       0.22188600
     9  N          0.93453130       0.78694870       0.52068800
    10  N          0.56546870       0.28694870       0.97931200
    11  N          0.06546870       0.21305130       0.47931200
    12  N          0.43453130       0.71305130       0.02068800
    13  C          0.75481150       0.06962150       0.56960800
    14  C          0.74518850       0.56962150       0.93039200
    15  C          0.24518850       0.93037850       0.43039200
    16  C          0.25481150       0.43037850       0.06960800
    17  H          0.80957000       0.11445000       0.53075000
    18  H          0.69043000       0.61445000       0.96925000
    19  H          0.19043000       0.88555000       0.46925000
    20  H          0.30957000       0.38555000       0.03075000
    21  H          0.72663000       0.98469000       0.54763000
    22  H          0.77337000       0.48469000       0.95237000
    23  H          0.27337000       0.01531000       0.45237000
    24  H          0.22663000       0.51531000       0.04763000
    25  N          0.65494140       0.28637130       0.58865800
    26  N          0.84505860       0.78637130       0.91134200
    27  N          0.34505860       0.71362870       0.41134200
    28  N          0.15494140       0.21362870       0.08865800
    29  C         -0.00458850       0.94267850       0.62467900
    30  C          0.50458850       0.44267850       0.87532100
    31  C          0.00458850       0.05732150       0.37532100
    32  C          0.49541150       0.55732150       0.12467900
    33  H          0.03765000      -0.01186000       0.58105000
    34  H          0.46235000       0.48814000       0.91895000
    35  H          0.96235000       0.01186000       0.41895000
    36  H          0.53765000       0.51186000       0.08105000
    37  H          0.05998000       0.93458830       0.66695000
    38  H          0.44002000       0.43458830       0.83305000
    39  H          0.94002000       0.06541170       0.33305000
    40  H          0.55998000       0.56541170       0.16695000
    41  C          0.63385150       0.15428150       0.58688800
    42  C          0.86614850       0.65428150       0.91311200
    43  C          0.36614850       0.84571850       0.41311200
    44  C          0.13385150       0.34571850       0.08688800
    45  C          0.95071140       0.80546850       0.59886900
    46  C          0.54928860       0.30546850       0.90113100
    47  C          0.04928860       0.19453150       0.40113100
    48  C          0.45071140       0.69453150       0.09886900
    49  C          0.91681170       0.20358150       0.68475900
    50  C          0.58318830       0.70358150       0.81524100
    51  C          0.08318830       0.79641850       0.31524100
    52  C          0.41681170       0.29641850       0.18475900
    53  H          0.96416000       0.24015000       0.64016000
    54  H          0.53584000       0.74015000       0.85984000
    55  H          0.03584000       0.75985000       0.35984000
    56  H          0.46416000       0.25985000       0.14016000
    57  H          0.84279000       0.26227000       0.69585150
    58  H          0.65721000       0.76227000       0.80414850
    59  H          0.15721000       0.73773000       0.30414850
    60  H          0.34279000       0.23773000       0.19585150
    61  C          0.00884150       0.20178150       0.75530900
    62  C          0.49115850       0.70178150       0.74469100
    63  C         -0.00884150       0.79821850       0.24469100
    64  C          0.50884150       0.29821850       0.25530900
    65  C          0.51083170       0.09771190       0.60214100
    66  C         -0.01083170       0.59771190       0.89785900
    67  C          0.48916830       0.90228810       0.39785900
    68  C          0.01083170       0.40228810       0.10214100
    69  H          0.49923000       0.00320000       0.60024110
    70  H          0.00077000       0.50320000       0.89975890
    71  H          0.50077000      -0.00320000       0.39975890
    72  H         -0.00077000       0.49680000       0.10024110
    73  C          0.87262190       0.58480820       0.62761120
    74  C          0.62737810       0.08480820       0.87238880
    75  C          0.12737810       0.41519180       0.37238880
    76  C          0.37262190       0.91519180       0.12761120
    77  H          0.85215000       0.51718500       0.66348000
    78  H          0.64785000       0.01718500       0.83652000
    79  H          0.14785000       0.48281500       0.33652000
    80  H          0.35215000       0.98281500       0.16348000
    81  C          0.92105170       0.70609840       0.65376100
    82  C          0.57894830       0.20609840       0.84623900
    83  C          0.07894830       0.29390160       0.34623900
    84  C          0.42105170       0.79390160       0.15376100
    85  H          0.93383000       0.72136000       0.70741100
    86  H          0.56617000       0.22136000       0.79258900
    87  H          0.06617000       0.27864000       0.29258900
    88  H          0.43383000       0.77864000       0.20741100
    89  C          0.96157180       0.22861160       0.83031900
    90  C          0.53842820       0.72861160       0.66968100
    91  C          0.03842820       0.77138840       0.16968100
    92  C          0.46157180       0.27138840       0.33031900
    93  H          0.87211900       0.24965000       0.83810180
    94  H          0.62788100       0.74965000       0.66189820
    95  H          0.12788100       0.75035000       0.16189820
    96  H          0.37211900       0.25035000       0.33810180
    97  C          0.04892000       0.22390170       0.89351100
    98  C          0.45108000       0.72390170       0.60648900
    99  C          0.95108000       0.77609830       0.10648900
   100  C          0.54892000       0.27609830       0.39351100
   101  H          0.01987000       0.23974000       0.94261100
   102  H          0.48013000       0.73974000       0.55738900
   103  H          0.98013000       0.76026000       0.05738900
   104  H          0.51987000       0.26026000       0.44261100
   105  C          0.85502000       0.56532820       0.54811120
   106  C          0.64498000       0.06532820       0.95188880
   107  C          0.14498000       0.43467180       0.45188880
   108  C          0.35502000       0.93467180       0.04811120
   109  H          0.82258000       0.48548100       0.52925000
   110  H          0.67742000       0.98548100       0.97075000
   111  H          0.17742000       0.51451900       0.47075000
   112  H          0.32258000       0.01451900       0.02925000
   113  C          0.40478190       0.18092000       0.62026110
   114  C          0.09521810       0.68092000       0.87973890
   115  C          0.59521810       0.81908000       0.37973890
   116  C          0.90478190       0.31908000       0.12026110
   117  H          0.32520000       0.14729000       0.62983000
   118  H          0.17480000       0.64729000       0.87017000
   119  H          0.67480000       0.85271000       0.37017000
   120  H          0.82520000       0.35271000       0.12983000
   121  C          0.55112000       0.36412000       0.60738120
   122  C          0.94888000       0.86412000       0.89261880
   123  C          0.44888000       0.63588000       0.39261880
   124  C          0.05112000       0.13588000       0.10738120
   125  H          0.56524000       0.46020000       0.60989130
   126  H          0.93476000       0.96020000       0.89010870
   127  H          0.43476000       0.53980000       0.39010870
   128  H          0.06524000       0.03980000       0.10989130
   129  C          0.88711180       0.66762820       0.49733120
   130  C          0.61288820       0.16762820       0.00266880
   131  C          0.11288820       0.33237180       0.50266880
   132  C          0.38711180       0.83237180      -0.00266880
   133  H          0.87503000       0.65306000       0.44261200
   134  H          0.62497000       0.15306000       0.05738800
   135  H          0.12497000       0.34694000       0.55738800
   136  H          0.37503000       0.84694000       0.94261200
   137  C          0.17992000       0.19492000       0.88041120
   138  C          0.32008000       0.69492000       0.61958880
   139  C          0.82008000       0.80508000       0.11958880
   140  C          0.67992000       0.30508000       0.38041120
   141  H          0.24291500       0.19262000       0.92311000
   142  H          0.25708500       0.69262000       0.57689000
   143  H          0.75708500       0.80738000       0.07689000
   144  H          0.74291500       0.30738000       0.42311000
   145  N          0.13632150       0.17152000       0.74154900
   146  N          0.36367850       0.67152000       0.75845100
   147  N          0.86367850       0.82848000       0.25845100
   148  N          0.63632150       0.32848000       0.24154900
   149  C          0.42612000       0.31632000       0.62320120
   150  C          0.07388000       0.81632000       0.87679880
   151  C          0.57388000       0.68368000       0.37679880
   152  C          0.92612000       0.18368000       0.12320120
   153  H          0.35631700       0.37531400       0.63593000
   154  H          0.14368300       0.87531400       0.86407000
   155  H          0.64368300       0.62468600       0.36407000
   156  H          0.85631700       0.12468600       0.13593000
   157  C          0.21852000       0.16933000       0.80432130
   158  C          0.28148000       0.66933000       0.69567870
   159  C          0.78148000       0.83067000       0.19567870
   160  C          0.71852000       0.33067000       0.30432130
   161  H          0.30720000       0.14926000       0.79563000
   162  H          0.19280000       0.64926000       0.70437000
   163  H          0.69280000       0.85074000       0.20437000
   164  H          0.80720000       0.35074000       0.29563000
