data_UKEMEE02
_symmetry_space_group_name_H-M    'P1'
_symmetry_Int_Tables_number       1
loop_
_symmetry_equiv_pos_site_id
_symmetry_equiv_pos_as_xyz
1 x,y,z
_cell_length_a                   16.30867
_cell_length_b                   16.30867
_cell_length_c                   5.29972
_cell_angle_alpha                90.0
_cell_angle_beta                 90.0
_cell_angle_gamma                120.0
loop_
_atom_site_label
_atom_site_type_symbol
_atom_site_fract_x
_atom_site_fract_y
_atom_site_fract_z
     1  P          0.66670000       0.33330000       0.70731160
     2  P          0.33336667       0.66663333       0.04064493
     3  P          0.00003333      -0.00003333       0.37397827
     4  C          0.80786000       0.15106000       0.92721200
     5  C          0.84894000       0.65680000       0.92721200
     6  C          0.34320000       0.19214000       0.92721200
     7  C          0.47452667       0.48439333       0.26054533
     8  C          0.51560667      -0.00986667       0.26054533
     9  C          0.00986667       0.52547333       0.26054533
    10  C          0.14119333       0.81772667       0.59387867
    11  C          0.18227333       0.32346667       0.59387867
    12  C          0.67653333       0.85880667       0.59387867
    13  H          0.80690000       0.12110000       0.08180000
    14  H          0.87890000       0.68580000       0.08180000
    15  H          0.31420000       0.19310000       0.08180000
    16  H          0.47356667       0.45443333       0.41513333
    17  H          0.54556667       0.01913333       0.41513333
    18  H          0.98086667       0.52643333       0.41513333
    19  H          0.14023333       0.78776667       0.74846667
    20  H          0.21223333       0.35246667       0.74846667
    21  H          0.64753333       0.85976667       0.74846667
    22  O          0.66670000       0.33330000      -0.01154000
    23  O          0.33336667       0.66663333       0.32179333
    24  O          0.00003333      -0.00003333       0.65512667
    25  C          0.88243000       0.22853000       0.56511200
    26  C          0.77147000       0.65390000       0.56511200
    27  C          0.34610000       0.11757000       0.56511200
    28  C          0.54909667       0.56186333       0.89844533
    29  C          0.43813667       0.98723333       0.89844533
    30  C          0.01276667       0.45090333       0.89844533
    31  C          0.21576333       0.89519667       0.23177867
    32  C          0.10480333       0.32056667       0.23177867
    33  C          0.67943333       0.78423667       0.23177867
    34  H          0.93660000       0.25330000       0.45910000
    35  H          0.74670000       0.68330000       0.45910000
    36  H          0.31670000       0.06340000       0.45910000
    37  H          0.60326667       0.58663333       0.79243333
    38  H          0.41336667       0.01663333       0.79243333
    39  H          0.98336667       0.39673333       0.79243333
    40  H          0.26993333       0.91996667       0.12576667
    41  H          0.08003333       0.34996667       0.12576667
    42  H          0.65003333       0.73006667       0.12576667
    43  C          0.88244000       0.18144000       0.76991300
    44  C          0.81856000       0.70100000       0.76991300
    45  C          0.29900000       0.11756000       0.76991300
    46  C          0.54910667       0.51477333       0.10324633
    47  C          0.48522667       0.03433333       0.10324633
    48  C          0.96566667       0.45089333       0.10324633
    49  C          0.21577333       0.84810667       0.43657967
    50  C          0.15189333       0.36766667       0.43657967
    51  C          0.63233333       0.78422667       0.43657967
    52  H          0.93280000       0.16960000       0.80390000
    53  H          0.83040000       0.76320000       0.80390000
    54  H          0.23680000       0.06720000       0.80390000
    55  H          0.59946667       0.50293333       0.13723333
    56  H          0.49706667       0.09653333       0.13723333
    57  H          0.90346667       0.40053333       0.13723333
    58  H          0.26613333       0.83626667       0.47056667
    59  H          0.16373333       0.42986667       0.47056667
    60  H          0.57013333       0.73386667       0.47056667
    61  N          0.81192000       0.24402000       0.49608000
    62  N          0.75598000       0.56790000       0.49608000
    63  N          0.43210000       0.18808000       0.49608000
    64  N          0.47858667       0.57735333       0.82941333
    65  N          0.42264667       0.90123333       0.82941333
    66  N          0.09876667       0.52141333       0.82941333
    67  N          0.14525333       0.91068667       0.16274667
    68  N          0.08931333       0.23456667       0.16274667
    69  N          0.76543333       0.85474667       0.16274667
    70  C          0.73652000       0.21032000       0.64076000
    71  C          0.78968000       0.52620000       0.64076000
    72  C          0.47380000       0.26348000       0.64076000
    73  C          0.40318667       0.54365333      -0.02590667
    74  C          0.45634667       0.85953333      -0.02590667
    75  C          0.14046667       0.59681333      -0.02590667
    76  C          0.06985333       0.87698667       0.30742667
    77  C          0.12301333       0.19286667       0.30742667
    78  C          0.80713333       0.93014667       0.30742667
    79  C          0.65772000       0.22791190       0.56545000
    80  C          0.77208810       0.42980810       0.56545000
    81  C          0.57019190       0.34228000       0.56545000
    82  C          0.32438667       0.56124523       0.89878333
    83  C          0.43875477       0.76314143       0.89878333
    84  C          0.23685857       0.67561333       0.89878333
    85  C         -0.00894667       0.89457857       0.23211667
    86  C          0.10542143       0.09647477       0.23211667
    87  C          0.90352523       0.00894667       0.23211667
    88  H          0.59650000       0.17240000       0.61460000
    89  H          0.82760000       0.42410000       0.61460000
    90  H          0.57590000       0.40350000       0.61460000
    91  H          0.26316667       0.50573333       0.94793333
    92  H          0.49426667       0.75743333       0.94793333
    93  H          0.24256667       0.73683333       0.94793333
    94  H          0.92983333       0.83906667       0.28126667
    95  H          0.16093333       0.09076667       0.28126667
    96  H          0.90923333       0.07016667       0.28126667
    97  H          0.65790000       0.23400000       0.37950000
    98  H          0.76600000       0.42390000       0.37950000
    99  H          0.57610000       0.34210000       0.37950000
   100  H          0.32456667       0.56733333       0.71283333
   101  H          0.43266667       0.75723333       0.71283333
   102  H          0.24276667       0.67543333       0.71283333
   103  H         -0.00876667       0.90066667       0.04616667
   104  H          0.09933333       0.09056667       0.04616667
   105  H          0.90943333       0.00876667       0.04616667
   106  C          0.73205000       0.16375000       0.86231000
   107  C          0.83625000       0.56830000       0.86231000
   108  C          0.43170000       0.26795000       0.86231000
   109  C          0.39871667       0.49708333       0.19564333
   110  C          0.50291667       0.90163333       0.19564333
   111  C          0.09836667       0.60128333       0.19564333
   112  C          0.06538333       0.83041667       0.52897667
   113  C          0.16958333       0.23496667       0.52897667
   114  C          0.76503333       0.93461667       0.52897667
   115  H          0.67810000       0.14070000       0.96890000
   116  H          0.85930000       0.53740000       0.96890000
   117  H          0.46260000       0.32190000       0.96890000
   118  H          0.34476667       0.47403333       0.30223333
   119  H          0.52596667       0.87073333       0.30223333
   120  H          0.12926667       0.65523333       0.30223333
   121  H          0.01143333       0.80736667       0.63556667
   122  H          0.19263333       0.20406667       0.63556667
   123  H          0.79593333       0.98856667       0.63556667
   124  C          0.51564667       0.99005333       0.26054533
