data_UKEMEE01
_symmetry_space_group_name_H-M    'P1'
_symmetry_Int_Tables_number       1
loop_
_symmetry_equiv_pos_site_id
_symmetry_equiv_pos_as_xyz
1 x,y,z
_cell_length_a                   16.321014
_cell_length_b                   16.3210014
_cell_length_c                   5.32406
_cell_angle_alpha                90.0
_cell_angle_beta                 90.0
_cell_angle_gamma                120.0
loop_
_atom_site_label
_atom_site_type_symbol
_atom_site_fract_x
_atom_site_fract_y
_atom_site_fract_z
     1  P          0.00000000      -0.00000000       0.01492180
     2  P          0.66666667       0.33333333       0.34825513
     3  P          0.33333333       0.66666667       0.68158847
     4  C          0.89508180       0.90327820       0.15515000
     5  C          0.09672180      -0.00819640       0.15515000
     6  C          0.00819640       0.10491820       0.15515000
     7  C          0.56174847       0.23661153       0.48848333
     8  C          0.76338847       0.32513693       0.48848333
     9  C          0.67486307       0.43825153       0.48848333
    10  C          0.22841513       0.56994487       0.82181667
    11  C          0.43005513       0.65847027       0.82181667
    12  C          0.34152973       0.77158487       0.82181667
    13  H          0.90142000       0.90888000       0.34540000
    14  H          0.09112000      -0.00746000       0.34540000
    15  H          0.00746000       0.09858000       0.34540000
    16  H          0.56808667       0.24221333       0.67873333
    17  H          0.75778667       0.32587333       0.67873333
    18  H          0.67412667       0.43191333       0.67873333
    19  H          0.23475333       0.57554667       0.01206667
    20  H          0.42445333       0.65920667       0.01206667
    21  H          0.34079333       0.76524667       0.01206667
    22  H          0.83811300       0.90918000       0.10611100
    23  H          0.09082000       0.92893300       0.10611100
    24  H          0.07106700       0.16188700       0.10611100
    25  H          0.50477967       0.24251333       0.43944433
    26  H          0.75748667       0.26226633       0.43944433
    27  H          0.73773367       0.49522033       0.43944433
    28  H          0.17144633       0.57584667       0.77277767
    29  H          0.42415333       0.59559967       0.77277767
    30  H          0.40440033       0.82855367       0.77277767
    31  N          0.91098190       0.76617810       0.22746000
    32  N          0.23382190       0.14480380       0.22746000
    33  N          0.85519620       0.08901810       0.22746000
    34  N          0.57764857       0.09951143       0.56079333
    35  N          0.90048857       0.47813713       0.56079333
    36  N          0.52186287       0.42235143       0.56079333
    37  N          0.24431523       0.43284477       0.89412667
    38  N          0.56715523       0.81147047       0.89412667
    39  N          0.18852953       0.75568477       0.89412667
    40  C          0.87734180       0.80705820       0.07835000
    41  C          0.19294180       0.07028360       0.07835000
    42  C          0.92971640       0.12265820       0.07835000
    43  C          0.54400847       0.14039153       0.41168333
    44  C          0.85960847       0.40361693       0.41168333
    45  C          0.59638307       0.45599153       0.41168333
    46  C          0.21067513       0.47372487       0.74501667
    47  C          0.52627513       0.73695027       0.74501667
    48  C          0.26304973       0.78932487       0.74501667
    49  C          0.84923000       0.63387000       0.94851000
    50  C          0.36613000       0.21536000       0.94851000
    51  C          0.78464000       0.15077000       0.94851000
    52  C          0.51589667       0.96720333       0.28184333
    53  C          0.03279667       0.54869333       0.28184333
    54  C          0.45130667       0.48410333       0.28184333
    55  C          0.18256333       0.30053667       0.61517667
    56  C          0.69946333       0.88202667       0.61517667
    57  C          0.11797333       0.81743667       0.61517667
    58  H          0.84036000       0.57370000       0.90980000
    59  H          0.42630000       0.26666000       0.90980000
    60  H          0.73334000       0.15964000       0.90980000
    61  H          0.50702667       0.90703333       0.24313333
    62  H          0.09296667       0.59999333       0.24313333
    63  H          0.40000667       0.49297333       0.24313333
    64  H          0.17369333       0.24036667       0.57646667
    65  H          0.75963333       0.93332667       0.57646667
    66  H          0.06667333       0.82630667       0.57646667
    67  C          0.83003000       0.76538000       0.85983000
    68  C          0.23462000       0.06465000       0.85983000
    69  C          0.93535000       0.16997000       0.85983000
    70  C          0.49669667       0.09871333       0.19316333
    71  C          0.90128667       0.39798333       0.19316333
    72  C          0.60201667       0.50330333       0.19316333
    73  C          0.16336333       0.43204667       0.52649667
    74  C          0.56795333       0.73131667       0.52649667
    75  C          0.26868333       0.83663667       0.52649667
    76  H          0.80681200       0.79698400       0.75350000
    77  H          0.20301600       0.00982800       0.75350000
    78  H         -0.00982800       0.19318800       0.75350000
    79  H          0.47347867       0.13031733       0.08683333
    80  H          0.86968267       0.34316133       0.08683333
    81  H          0.65683867       0.52652133       0.08683333
    82  H          0.14014533       0.46365067       0.42016667
    83  H          0.53634933       0.67649467       0.42016667
    84  H          0.32350533       0.85985467       0.42016667
    85  C          0.89543000       0.68047000       0.15889000
    86  C          0.31953000       0.21496000       0.15889000
    87  C          0.78504000       0.10457000       0.15889000
    88  C          0.56209667       0.01380333       0.49222333
    89  C          0.98619667       0.54829333       0.49222333
    90  C          0.45170667       0.43790333       0.49222333
    91  C          0.22876333       0.34713667       0.82555667
    92  C          0.65286333       0.88162667       0.82555667
    93  C          0.11837333       0.77123667       0.82555667
    94  H          0.91801200       0.65108600       0.26350000
    95  H          0.34891400       0.26692600       0.26350000
    96  H          0.73307400       0.08198800       0.26350000
    97  H          0.58467867       0.98441933       0.59683333
    98  H          0.01558067       0.60025933       0.59683333
    99  H          0.39974067       0.41532133       0.59683333
   100  H          0.25134533       0.31775267       0.93016667
   101  H          0.68224733       0.93359267       0.93016667
   102  H          0.06640733       0.74865467       0.93016667
   103  C          0.81614000       0.67727000       0.79491000
   104  C          0.32273000       0.13887000       0.79491000
   105  C          0.86113000       0.18386000       0.79491000
   106  C          0.48280667       0.01060333       0.12824333
   107  C         -0.01060333       0.47220333       0.12824333
   108  C          0.52779667       0.51719333       0.12824333
   109  C          0.14947333       0.34393667       0.46157667
   110  C          0.65606333       0.80553667       0.46157667
   111  C          0.19446333       0.85052667       0.46157667
   112  H          0.78201900       0.64588300       0.63610000
   113  H          0.35411700       0.13613600       0.63610000
   114  H          0.86386400       0.21798100       0.63610000
   115  H          0.44868567       0.97921633       0.96943333
   116  H          0.02078367       0.46946933       0.96943333
   117  H          0.53053067       0.55131433       0.96943333
   118  H          0.11535233       0.31254967       0.30276667
   119  H          0.68745033       0.80280267       0.30276667
   120  H          0.19719733       0.88464767       0.30276667
   121  O          0.00000000      -0.00000000       0.73664000
   122  O          0.66666667       0.33333333       0.06997333
   123  O          0.33333333       0.66666667       0.40330667
