data_ULALUO01
_symmetry_space_group_name_H-M    'P1'
_symmetry_Int_Tables_number       1
loop_
_symmetry_equiv_pos_site_id
_symmetry_equiv_pos_as_xyz
1 x,y,z
_cell_length_a                   3.9781
_cell_length_b                   16.8622
_cell_length_c                   6.2851
_cell_angle_alpha                90.0
_cell_angle_beta                 90.142
_cell_angle_gamma                90.0
loop_
_atom_site_label
_atom_site_type_symbol
_atom_site_fract_x
_atom_site_fract_y
_atom_site_fract_z
     1  Br         0.72833000       0.62551000       0.64048000
     2  Br         0.27167000       0.12551000       0.85952000
     3  Br         0.27167000       0.37449000       0.35952000
     4  Br         0.72833000       0.87449000       0.14048000
     5  O          0.33903000       0.68685000       0.20651700
     6  O          0.66097000       0.18685000       0.29348300
     7  O          0.66097000       0.31315000       0.79348300
     8  O          0.33903000       0.81315000       0.70651700
     9  C          0.07003000       0.58037000       0.02641700
    10  C          0.92997000       0.08037000       0.47358300
    11  C          0.92997000       0.41963000       0.97358300
    12  C          0.07003000       0.91963000       0.52641700
    13  C          0.82103000       0.47546000       0.82428400
    14  C          0.17897000       0.97546000       0.67571600
    15  C          0.17897000       0.52454000       0.17571600
    16  C          0.82103000       0.02454000       0.32428400
    17  C          0.88903000       0.55436000       0.84988300
    18  C          0.11097000       0.05436000       0.65011700
    19  C          0.11097000       0.44564000       0.15011700
    20  C          0.88903000       0.94564000       0.34988300
    21  C          0.15804000       0.66687000       0.06702000
    22  C          0.84196000       0.16687000       0.43298000
    23  C          0.84196000       0.33313000       0.93298000
    24  C          0.15804000       0.83313000       0.56702000
    25  H          0.70130000       0.45850000       0.70540000
    26  H          0.29870000       0.95850000       0.79460000
    27  H          0.29870000       0.54150000       0.29460000
    28  H          0.70130000       0.04150000       0.20540000
    29  H          0.06500000       0.70540000      -0.02100000
    30  H          0.93500000       0.20540000       0.52100000
    31  H          0.93500000       0.29460000       0.02100000
    32  H          0.06500000       0.79460000       0.47900000
