data_ULALUO02
_symmetry_space_group_name_H-M    'P1'
_symmetry_Int_Tables_number       1
loop_
_symmetry_equiv_pos_site_id
_symmetry_equiv_pos_as_xyz
1 x,y,z
_cell_length_a                   4.01095
_cell_length_b                   6.25929
_cell_length_c                   8.763912
_cell_angle_alpha                72.75113
_cell_angle_beta                 81.96211
_cell_angle_gamma                85.69411
loop_
_atom_site_label
_atom_site_type_symbol
_atom_site_fract_x
_atom_site_fract_y
_atom_site_fract_z
     1  O          0.19121100       0.14708000       0.28465000
     2  O          0.80878900       0.85292000       0.71535000
     3  Br         0.80122140       0.74499110       0.12566700
     4  Br         0.19877860       0.25500890       0.87433300
     5  C          0.45241300       0.40299000       0.37916000
     6  C          0.54758700       0.59701000       0.62084000
     7  C          0.62701200       0.59849000       0.34196000
     8  C          0.37298800       0.40151000       0.65804000
     9  C          0.67701200       0.69729000       0.45786000
    10  C          0.32298800       0.30271000       0.54214000
    11  H          0.79470000       0.82860000       0.42920000
    12  H          0.20530000       0.17140000       0.57080000
    13  C          0.38871500       0.29041000       0.25937000
    14  C          0.61128500       0.70959000       0.74063000
    15  H          0.51013000       0.33810000       0.16670000
    16  H          0.48987000       0.66190000       0.83330000
    17  H          0.49013000       0.66210000       0.83470000
    18  H          0.50987000       0.33790000       0.16530000
