data_ULALUO
_symmetry_space_group_name_H-M    'P1'
_symmetry_Int_Tables_number       1
loop_
_symmetry_equiv_pos_site_id
_symmetry_equiv_pos_as_xyz
1 x,y,z
_cell_length_a                   4.0021
_cell_length_b                   6.2541
_cell_length_c                   8.7511
_cell_angle_alpha                72.731
_cell_angle_beta                 82.001
_cell_angle_gamma                85.791
loop_
_atom_site_label
_atom_site_type_symbol
_atom_site_fract_x
_atom_site_fract_y
_atom_site_fract_z
     1  Br         0.19851000       0.25491000       0.87461000
     2  Br         0.80149000       0.74509000       0.12539000
     3  O          0.80898000       0.85385000       0.71554000
     4  O          0.19102000       0.14615000       0.28446000
     5  C          0.54998000       0.59886000       0.61944000
     6  C          0.45002000       0.40114000       0.38056000
     7  C          0.32288000       0.30346000       0.54084000
     8  C          0.67712000       0.69654000       0.45916000
     9  C          0.37338000       0.40046000       0.65744000
    10  C          0.62662000       0.59954000       0.34256000
    11  C          0.60879000       0.70916000       0.74115000
    12  C          0.39121000       0.29084000       0.25885000
    13  H          0.20360000       0.17230000       0.56900000
    14  H          0.79640000       0.82770000       0.43100000
    15  H          0.48420000       0.66410000       0.84250000
    16  H          0.51580000       0.33590000       0.15750000
