data_ULAWAF01
_symmetry_space_group_name_H-M    'P1'
_symmetry_Int_Tables_number       1
loop_
_symmetry_equiv_pos_site_id
_symmetry_equiv_pos_as_xyz
1 x,y,z
_cell_length_a                   11.691112
_cell_length_b                   9.99451
_cell_length_c                   12.136612
_cell_angle_alpha                90.0
_cell_angle_beta                 102.7435
_cell_angle_gamma                90.0
loop_
_atom_site_label
_atom_site_type_symbol
_atom_site_fract_x
_atom_site_fract_y
_atom_site_fract_z
     1  O          0.03766600       0.69269500       0.65610500
     2  O          0.53766600       0.19269500       0.65610500
     3  O          0.96233400       0.69269500       0.84389500
     4  O          0.46233400       0.19269500       0.84389500
     5  O          0.96233400       0.30730500       0.34389500
     6  O          0.46233400       0.80730500       0.34389500
     7  O          0.03766600       0.30730500       0.15610500
     8  O          0.53766600       0.80730500       0.15610500
     9  H          0.07021200       0.69651400       0.56961100
    10  H          0.57021200       0.19651400       0.56961100
    11  H          0.92978800       0.69651400       0.93038900
    12  H          0.42978800       0.19651400       0.93038900
    13  H          0.92978800       0.30348600       0.43038900
    14  H          0.42978800       0.80348600       0.43038900
    15  H          0.07021200       0.30348600       0.06961100
    16  H          0.57021200       0.80348600       0.06961100
    17  O          0.03862500       0.91687500       0.65053400
    18  O          0.53862500       0.41687500       0.65053400
    19  O          0.96137500       0.91687500       0.84946600
    20  O          0.46137500       0.41687500       0.84946600
    21  O          0.96137500       0.08312500       0.34946600
    22  O          0.46137500       0.58312500       0.34946600
    23  O          0.03862500       0.08312500       0.15053400
    24  O          0.53862500       0.58312500       0.15053400
    25  C          0.02189600       0.81062700       0.69427500
    26  C          0.52189600       0.31062700       0.69427500
    27  C          0.97810400       0.81062700       0.80572500
    28  C          0.47810400       0.31062700       0.80572500
    29  C          0.97810400       0.18937300       0.30572500
    30  C          0.47810400       0.68937300       0.30572500
    31  C          0.02189600       0.18937300       0.19427500
    32  C          0.52189600       0.68937300       0.19427500
    33  O          0.24221500       0.63579500       0.11434400
    34  O          0.74221500       0.13579500       0.11434400
    35  O          0.75778500       0.63579500       0.38565600
    36  O          0.25778500       0.13579500       0.38565600
    37  O          0.75778500       0.36420500       0.88565600
    38  O          0.25778500       0.86420500       0.88565600
    39  O          0.24221500       0.36420500       0.61434400
    40  O          0.74221500       0.86420500       0.61434400
    41  N          0.09980500       0.70119600       0.46765500
    42  N          0.59980500       0.20119600       0.46765500
    43  N          0.90019500       0.70119600       0.03234500
    44  N          0.40019500       0.20119600       0.03234500
    45  N          0.90019500       0.29880400       0.53234500
    46  N          0.40019500       0.79880400       0.53234500
    47  N          0.09980500       0.29880400       0.96765500
    48  N          0.59980500       0.79880400       0.96765500
    49  N          0.17231600       0.84781600       0.09236500
    50  N          0.67231600       0.34781600       0.09236500
    51  N          0.82768400       0.84781600       0.40763500
    52  N          0.32768400       0.34781600       0.40763500
    53  N          0.82768400       0.15218400       0.90763500
    54  N          0.32768400       0.65218400       0.90763500
    55  N          0.17231600       0.15218400       0.59236500
    56  N          0.67231600       0.65218400       0.59236500
    57  C          0.11357600       0.59118600       0.40853600
    58  C          0.61357600       0.09118600       0.40853600
    59  C          0.88642400       0.59118600       0.09146400
    60  C          0.38642400       0.09118600       0.09146400
    61  C          0.88642400       0.40881400       0.59146400
    62  C          0.38642400       0.90881400       0.59146400
    63  C          0.11357600       0.40881400       0.90853600
    64  C          0.61357600       0.90881400       0.90853600
    65  H          0.10241100       0.50621300       0.44031000
    66  H          0.60241100       0.00621300       0.44031000
    67  H          0.89758900       0.50621300       0.05969000
    68  H          0.39758900       0.00621300       0.05969000
    69  H          0.89758900       0.49378700       0.55969000
    70  H          0.39758900      -0.00621300       0.55969000
    71  H          0.10241100       0.49378700       0.94031000
    72  H          0.60241100      -0.00621300       0.94031000
    73  C          0.14390600       0.59928600       0.30467500
    74  C          0.64390600       0.09928600       0.30467500
    75  C          0.85609400       0.59928600       0.19532500
    76  C          0.35609400       0.09928600       0.19532500
    77  C          0.85609400       0.40071400       0.69532500
    78  C          0.35609400       0.90071400       0.69532500
    79  C          0.14390600       0.40071400       0.80467500
    80  C          0.64390600       0.90071400       0.80467500
    81  H          0.15101100       0.51631500       0.26101100
    82  H          0.65101100       0.01631500       0.26101100
    83  H          0.84898900       0.51631500       0.23898900
    84  H          0.34898900       0.01631500       0.23898900
    85  H          0.84898900       0.48368500       0.73898900
    86  H          0.34898900       0.98368500       0.73898900
    87  H          0.15101100       0.48368500       0.76101100
    88  H          0.65101100       0.98368500       0.76101100
    89  C          0.16081600       0.72500600       0.26121500
    90  C          0.66081600       0.22500600       0.26121500
    91  C          0.83918400       0.72500600       0.23878500
    92  C          0.33918400       0.22500600       0.23878500
    93  C          0.83918400       0.27499400       0.73878500
    94  C          0.33918400       0.77499400       0.73878500
    95  C          0.16081600       0.27499400       0.76121500
    96  C          0.66081600       0.77499400       0.76121500
    97  C          0.14666600       0.83853700       0.32325600
    98  C          0.64666600       0.33853700       0.32325600
    99  C          0.85333400       0.83853700       0.17674400
   100  C          0.35333400       0.33853700       0.17674400
   101  C          0.85333400       0.16146300       0.67674400
   102  C          0.35333400       0.66146300       0.67674400
   103  C          0.14666600       0.16146300       0.82325600
   104  C          0.64666600       0.66146300       0.82325600
   105  H          0.15871100       0.93151300       0.30041000
   106  H          0.65871100       0.43151300       0.30041000
   107  H          0.84128900       0.93151300       0.19959000
   108  H          0.34128900       0.43151300       0.19959000
   109  H          0.84128900       0.06848700       0.69959000
   110  H          0.34128900       0.56848700       0.69959000
   111  H          0.15871100       0.06848700       0.80041000
   112  H          0.65871100       0.56848700       0.80041000
   113  C          0.11572600       0.82208700       0.42605600
   114  C          0.61572600       0.32208700       0.42605600
   115  C          0.88427400       0.82208700       0.07394400
   116  C          0.38427400       0.32208700       0.07394400
   117  C          0.88427400       0.17791300       0.57394400
   118  C          0.38427400       0.67791300       0.57394400
   119  C          0.11572600       0.17791300       0.92605600
   120  C          0.61572600       0.67791300       0.92605600
   121  H          0.10111100       0.89631200       0.47331000
   122  H          0.60111100       0.39631200       0.47331000
   123  H          0.89888900       0.89631200       0.02669000
   124  H          0.39888900       0.39631200       0.02669000
   125  H          0.89888900       0.10368800       0.52669000
   126  H          0.39888900       0.60368800       0.52669000
   127  H          0.10111100       0.10368800       0.97331000
   128  H          0.60111100       0.60368800       0.97331000
   129  C          0.19487600       0.73316600       0.14917500
   130  C          0.69487600       0.23316600       0.14917500
   131  C          0.80512400       0.73316600       0.35082500
   132  C          0.30512400       0.23316600       0.35082500
   133  C          0.80512400       0.26683400       0.85082500
   134  C          0.30512400       0.76683400       0.85082500
   135  C          0.19487600       0.26683400       0.64917500
   136  C          0.69487600       0.76683400       0.64917500
   137  H          0.19191100       0.85331200       0.02291100
   138  H          0.69191100       0.35331200       0.02291100
   139  H          0.80808900       0.85331200       0.47708900
   140  H          0.30808900       0.35331200       0.47708900
   141  H          0.80808900       0.14668800       0.97708900
   142  H          0.30808900       0.64668800       0.97708900
   143  H          0.19191100       0.14668800       0.52291100
   144  H          0.69191100       0.64668800       0.52291100
   145  H          0.13271300       0.91441400       0.11641100
   146  H          0.63271300       0.41441400       0.11641100
   147  H          0.86728700       0.91441400       0.38358900
   148  H          0.36728700       0.41441400       0.38358900
   149  H          0.86728700       0.08558600       0.88358900
   150  H          0.36728700       0.58558600       0.88358900
   151  H          0.13271300       0.08558600       0.61641100
   152  H          0.63271300       0.58558600       0.61641100
