data_ULAWAF
_symmetry_space_group_name_H-M    'P1'
_symmetry_Int_Tables_number       1
loop_
_symmetry_equiv_pos_site_id
_symmetry_equiv_pos_as_xyz
1 x,y,z
_cell_length_a                   11.74662
_cell_length_b                   10.01642
_cell_length_c                   12.19672
_cell_angle_alpha                90.0
_cell_angle_beta                 102.39501
_cell_angle_gamma                90.0
loop_
_atom_site_label
_atom_site_type_symbol
_atom_site_fract_x
_atom_site_fract_y
_atom_site_fract_z
     1  N          0.40016800       0.29875900       0.53261700
     2  N          0.90016800       0.79875900       0.53261700
     3  N          0.59983200       0.29875900       0.96738300
     4  N          0.09983200       0.79875900       0.96738300
     5  N          0.59983200       0.70124100       0.46738300
     6  N          0.09983200       0.20124100       0.46738300
     7  N          0.40016800       0.70124100       0.03261700
     8  N          0.90016800       0.20124100       0.03261700
     9  C          0.38417900       0.17833110       0.57414900
    10  C          0.88417900       0.67833110       0.57414900
    11  C          0.61582100       0.17833110       0.92585100
    12  C          0.11582100       0.67833110       0.92585100
    13  C          0.61582100       0.82166890       0.42585100
    14  C          0.11582100       0.32166890       0.42585100
    15  C          0.38417900       0.82166890       0.07414900
    16  C          0.88417900       0.32166890       0.07414900
    17  C          0.35343900       0.16204110       0.67688900
    18  C          0.85343900       0.66204110       0.67688900
    19  C          0.64656100       0.16204110       0.82311100
    20  C          0.14656100       0.66204110       0.82311100
    21  C          0.64656100       0.83795890       0.32311100
    22  C          0.14656100       0.33795890       0.32311100
    23  C          0.35343900       0.83795890       0.17688900
    24  C          0.85343900       0.33795890       0.17688900
    25  C          0.33934800       0.27507100       0.73866800
    26  C          0.83934800       0.77507100       0.73866800
    27  C          0.66065200       0.27507100       0.76133200
    28  C          0.16065200       0.77507100       0.76133200
    29  C          0.66065200       0.72492900       0.26133200
    30  C          0.16065200       0.22492900       0.26133200
    31  C          0.33934800       0.72492900       0.23866800
    32  C          0.83934800       0.22492900       0.23866800
    33  C          0.35626900       0.40015110       0.69542900
    34  C          0.85626900       0.90015110       0.69542900
    35  C          0.64373100       0.40015110       0.80457100
    36  C          0.14373100       0.90015110       0.80457100
    37  C          0.64373100       0.59984890       0.30457100
    38  C          0.14373100       0.09984890       0.30457100
    39  C          0.35626900       0.59984890       0.19542900
    40  C          0.85626900       0.09984890       0.19542900
    41  C          0.38658100       0.40812110       0.59160900
    42  C          0.88658100       0.90812110       0.59160900
    43  C          0.61341900       0.40812110       0.90839100
    44  C          0.11341900       0.90812110       0.90839100
    45  C          0.61341900       0.59187890       0.40839100
    46  C          0.11341900       0.09187890       0.40839100
    47  C          0.38658100       0.59187890       0.09160900
    48  C          0.88658100       0.09187890       0.09160900
    49  C          0.30517900       0.26694110       0.85105800
    50  C          0.80517900       0.76694110       0.85105800
    51  C          0.69482100       0.26694110       0.64894200
    52  C          0.19482100       0.76694110       0.64894200
    53  C          0.69482100       0.73305890       0.14894200
    54  C          0.19482100       0.23305890       0.14894200
    55  C          0.30517900       0.73305890       0.35105800
    56  C          0.80517900       0.23305890       0.35105800
    57  O          0.25841800       0.36396800       0.88578600
    58  O          0.75841800       0.86396800       0.88578600
    59  O          0.74158200       0.36396800       0.61421400
    60  O          0.24158200       0.86396800       0.61421400
    61  O          0.74158200       0.63603200       0.11421400
    62  O          0.24158200       0.13603200       0.11421400
    63  O          0.25841800       0.63603200       0.38578600
    64  O          0.75841800       0.13603200       0.38578600
    65  N          0.32750900       0.15270100       0.90732800
    66  N          0.82750900       0.65270100       0.90732800
    67  N          0.67249100       0.15270100       0.59267200
    68  N          0.17249100       0.65270100       0.59267200
    69  N          0.67249100       0.84729900       0.09267200
    70  N          0.17249100       0.34729900       0.09267200
    71  N          0.32750900       0.84729900       0.40732800
    72  N          0.82750900       0.34729900       0.40732800
    73  H          0.39631200       0.10421400       0.52761100
    74  H          0.89631200       0.60421400       0.52761100
    75  H          0.60368800       0.10421400       0.97238900
    76  H          0.10368800       0.60421400       0.97238900
    77  H          0.60368800       0.89578600       0.47238900
    78  H          0.10368800       0.39578600       0.47238900
    79  H          0.39631200       0.89578600       0.02761100
    80  H          0.89631200       0.39578600       0.02761100
    81  H          0.34161100       0.07171400       0.70111100
    82  H          0.84161100       0.57171400       0.70111100
    83  H          0.65838900       0.07171400       0.79888900
    84  H          0.15838900       0.57171400       0.79888900
    85  H          0.65838900       0.92828600       0.29888900
    86  H          0.15838900       0.42828600       0.29888900
    87  H          0.34161100       0.92828600       0.20111100
    88  H          0.84161100       0.42828600       0.20111100
    89  H          0.34871200       0.48231600       0.73701100
    90  H          0.84871200       0.98231600       0.73701100
    91  H          0.65128800       0.48231600       0.76298900
    92  H          0.15128800       0.98231600       0.76298900
    93  H          0.65128800       0.51768400       0.26298900
    94  H          0.15128800       0.01768400       0.26298900
    95  H          0.34871200       0.51768400       0.23701100
    96  H          0.84871200       0.01768400       0.23701100
    97  H          0.39941200       0.49431400       0.55941200
    98  H          0.89941200      -0.00568600       0.55941200
    99  H          0.60058800       0.49431400       0.94058800
   100  H          0.10058800      -0.00568600       0.94058800
   101  H          0.60058800       0.50568600       0.44058800
   102  H          0.10058800       0.00568600       0.44058800
   103  H          0.39941200       0.50568600       0.05941200
   104  H          0.89941200       0.00568600       0.05941200
   105  H          0.36551400       0.08381600       0.88201200
   106  H          0.86551400       0.58381600       0.88201200
   107  H          0.63448600       0.08381600       0.61798800
   108  H          0.13448600       0.58381600       0.61798800
   109  H          0.63448600       0.91618400       0.11798800
   110  H          0.13448600       0.41618400       0.11798800
   111  H          0.36551400       0.91618400       0.38201200
   112  H          0.86551400       0.41618400       0.38201200
   113  H          0.30581300       0.14811400       0.97531300
   114  H          0.80581300       0.64811400       0.97531300
   115  H          0.69418700       0.14811400       0.52468700
   116  H          0.19418700       0.64811400       0.52468700
   117  H          0.69418700       0.85188600       0.02468700
   118  H          0.19418700       0.35188600       0.02468700
   119  H          0.30581300       0.85188600       0.47531300
   120  H          0.80581300       0.35188600       0.47531300
   121  O          0.46269800       0.30701800       0.34386700
   122  O          0.96269800       0.80701800       0.34386700
   123  O          0.53730200       0.30701800       0.15613300
   124  O          0.03730200       0.80701800       0.15613300
   125  O          0.53730200       0.69298200       0.65613300
   126  O          0.03730200       0.19298200       0.65613300
   127  O          0.46269800       0.69298200       0.84386700
   128  O          0.96269800       0.19298200       0.84386700
   129  C          0.47789900       0.18937100       0.30591800
   130  C          0.97789900       0.68937100       0.30591800
   131  C          0.52210100       0.18937100       0.19408200
   132  C          0.02210100       0.68937100       0.19408200
   133  C          0.52210100       0.81062900       0.69408200
   134  C          0.02210100       0.31062900       0.69408200
   135  C          0.47789900       0.81062900       0.80591800
   136  C          0.97789900       0.31062900       0.80591800
   137  O          0.46094700       0.08372800       0.34907600
   138  O          0.96094700       0.58372800       0.34907600
   139  O          0.53905300       0.08372800       0.15092400
   140  O          0.03905300       0.58372800       0.15092400
   141  O          0.53905300       0.91627200       0.65092400
   142  O          0.03905300       0.41627200       0.65092400
   143  O          0.46094700       0.91627200       0.84907600
   144  O          0.96094700       0.41627200       0.84907600
   145  H          0.43420000       0.30320000       0.43071900
   146  H          0.93420000       0.80320000       0.43071900
   147  H          0.56580000       0.30320000       0.06928100
   148  H          0.06580000       0.80320000       0.06928100
   149  H          0.56580000       0.69680000       0.56928100
   150  H          0.06580000       0.19680000       0.56928100
   151  H          0.43420000       0.69680000       0.93071900
   152  H          0.93420000       0.19680000       0.93071900
