data_ULAWAF02
_symmetry_space_group_name_H-M    'P1'
_symmetry_Int_Tables_number       1
loop_
_symmetry_equiv_pos_site_id
_symmetry_equiv_pos_as_xyz
1 x,y,z
_cell_length_a                   3.68117
_cell_length_b                   7.591214
_cell_length_c                   12.4552
_cell_angle_alpha                85.6389
_cell_angle_beta                 87.8561
_cell_angle_gamma                84.2211
loop_
_atom_site_label
_atom_site_type_symbol
_atom_site_fract_x
_atom_site_fract_y
_atom_site_fract_z
     1  O          0.29804190       0.80006800       0.52094500
     2  O          0.70195810       0.19993200       0.47905500
     3  H          0.20940000       0.71541900       0.60111100
     4  H          0.79060000       0.28458100       0.39888900
     5  O          0.50442190       0.96801800       0.64052500
     6  O          0.49557810       0.03198200       0.35947500
     7  C          0.44652000       0.93596100       0.54826600
     8  C          0.55348000       0.06403900       0.45173400
     9  O          0.69332000       0.22319900      -0.00432500
    10  O          0.30668000       0.77680100       0.00432500
    11  N          0.09828190       0.59195900       0.67528600
    12  N          0.90171810       0.40804100       0.32471400
    13  N          0.58822000       0.05275900       0.86038600
    14  N          0.41178000       0.94724100       0.13961400
    15  C          0.07142000       0.42874110       0.64463600
    16  C          0.92858000       0.57125890       0.35536400
    17  H          0.16240000       0.40251800       0.57201000
    18  H          0.83760000       0.59748200       0.42799000
    19  C          0.93582000       0.29713100       0.71308600
    20  C          0.06418000       0.70286900       0.28691400
    21  H          0.92440000       0.18041900       0.68441100
    22  H          0.07560000       0.81958100       0.31558900
    23  C          0.83162000       0.33598100       0.81781600
    24  C          0.16838000       0.66401900       0.18218400
    25  C          0.86482000       0.50563100       0.84967600
    26  C          0.13518000       0.49436900       0.15032400
    27  H          0.78740000       0.54341800       0.92021000
    28  H          0.21260000       0.45658200       0.07979000
    29  C         -0.00268000       0.63129100       0.77588700
    30  C          0.00268000       0.36870900       0.22411300
    31  H          0.01840000       0.75131900       0.79401100
    32  H         -0.01840000       0.24868100       0.20598900
    33  C          0.69642000       0.19813100       0.89893600
    34  C          0.30358000       0.80186900       0.10106400
    35  H          0.49740000       0.96120000       0.91011200
    36  H          0.50260000       0.03880000       0.08988800
    37  H          0.57340000       0.03701800       0.78771100
    38  H          0.42660000       0.96298200       0.21228900
