data_UMAXUD
_symmetry_space_group_name_H-M    'P1'
_symmetry_Int_Tables_number       1
loop_
_symmetry_equiv_pos_site_id
_symmetry_equiv_pos_as_xyz
1 x,y,z
_cell_length_a                   13.42424
_cell_length_b                   8.90633
_cell_length_c                   13.65754
_cell_angle_alpha                90.0
_cell_angle_beta                 112.2602
_cell_angle_gamma                90.0
loop_
_atom_site_label
_atom_site_type_symbol
_atom_site_fract_x
_atom_site_fract_y
_atom_site_fract_z
     1  S          0.82193300       0.01066400       0.02547300
     2  S          0.67806700       0.51066400       0.47452700
     3  S          0.17806700      -0.01066400       0.97452700
     4  S          0.32193300       0.48933600       0.52547300
     5  O          0.90028900       0.89407870       0.07133900
     6  O          0.59971100       0.39407870       0.42866100
     7  O          0.09971100       0.10592130       0.92866100
     8  O          0.40028900       0.60592130       0.57133900
     9  O          0.77606900       0.01402130       0.91139100
    10  O          0.72393100       0.51402130       0.58860900
    11  O          0.22393100      -0.01402130       0.08860900
    12  O          0.27606900       0.48597870       0.41139100
    13  O          0.65766800       0.16649130       0.16282900
    14  O          0.84233200       0.66649130       0.33717100
    15  O          0.34233200       0.83350870       0.83717100
    16  O          0.15766800       0.33350870       0.66282900
    17  N          0.72873100       0.00857140       0.07313110
    18  N          0.77126900       0.50857140       0.42686890
    19  N          0.27126900      -0.00857140       0.92686890
    20  N          0.22873100       0.49142860       0.57313110
    21  C          0.72405110       0.13936170       0.12282110
    22  C          0.77594890       0.63936170       0.37717890
    23  C          0.27594890       0.86063830       0.87717890
    24  C          0.22405110       0.36063830       0.62282110
    25  C          0.82747120       0.39243170       0.16485120
    26  C          0.67252880       0.89243170       0.33514880
    27  C          0.17252880       0.60756830       0.83514880
    28  C          0.32747120       0.10756830       0.66485120
    29  C          0.91009130       0.47627180       0.15362130
    30  C          0.58990870       0.97627180       0.34637870
    31  C          0.08990870       0.52372820       0.84637870
    32  C          0.41009130       0.02372820       0.65362130
    33  C          0.97435120       0.41538190       0.10401120
    34  C          0.52564880       0.91538190       0.39598880
    35  C          0.02564880       0.58461810       0.89598880
    36  C          0.47435120       0.08461810       0.60401120
    37  C          0.95751120       0.27017180       0.06284120
    38  C          0.54248880       0.77017180       0.43715880
    39  C          0.04248880       0.72982820       0.93715880
    40  C          0.45751120       0.22982820       0.56284120
    41  C          0.87347110       0.19059170       0.07311110
    42  C          0.62652890       0.69059170       0.42688890
    43  C          0.12652890       0.80940830       0.92688890
    44  C          0.37347110       0.30940830       0.57311110
    45  C          0.80942110       0.24903170       0.12322110
    46  C          0.69057890       0.74903170       0.37677890
    47  C          0.19057890       0.75096830       0.87677890
    48  C          0.30942110       0.25096830       0.62322110
    49  H          0.78731600       0.43220000       0.20241600
    50  H          0.71268400       0.93220000       0.29758400
    51  H          0.21268400       0.56780000       0.79758400
    52  H          0.28731600       0.06780000       0.70241600
    53  H          0.92491400       0.57720000       0.18211400
    54  H          0.57508600       0.07720000       0.31788600
    55  H          0.07508600       0.42280000       0.81788600
    56  H          0.42491400       0.92280000       0.68211400
    57  H          0.03121600       0.47520000       0.09461500
    58  H          0.46878400       0.97520000       0.40538500
    59  H          0.96878400       0.52480000       0.90538500
    60  H          0.53121600       0.02480000       0.59461500
    61  H          0.00231500       0.22820000       0.02961500
    62  H          0.49768500       0.72820000       0.47038500
    63  H         -0.00231500       0.77180000       0.97038500
    64  H          0.50231500       0.27180000       0.52961500
    65  N          0.90481100       0.02692140       0.65978900
    66  N          0.59518900       0.52692140       0.84021100
    67  N          0.09518900       0.97307860       0.34021100
    68  N          0.40481100       0.47307860       0.15978900
    69  N          0.08718100       0.70409850       0.59153900
    70  N          0.41281900       0.20409850       0.90846100
    71  N          0.91281900       0.29590150       0.40846100
    72  N          0.58718100       0.79590150       0.09153900
    73  C          0.93982120       0.18328170       0.68774870
    74  C          0.56017880       0.68328170       0.81225130
    75  C          0.06017880       0.81671830       0.31225130
    76  C          0.43982120       0.31671830       0.18774870
    77  C          0.86514120       0.23891180       0.74026880
    78  C          0.63485880       0.73891180       0.75973120
    79  C          0.13485880       0.76108820       0.25973120
    80  C          0.36514120       0.26108820       0.24026880
    81  C          0.76128120       0.15116180       0.68333870
    82  C          0.73871880       0.65116180       0.81666130
    83  C          0.23871880       0.84883820       0.31666130
    84  C          0.26128120       0.34883820       0.18333870
    85  C          0.80187130      -0.00453170       0.67098860
    86  C          0.69812870       0.49546830       0.82901140
    87  C          0.19812870       0.00453170       0.32901140
    88  C          0.30187130       0.50453170       0.17098860
    89  C          0.96409110       0.92203830       0.63800890
    90  C          0.53590890       0.42203830       0.86199110
    91  C          0.03590890       0.07796170       0.36199110
    92  C          0.46409110       0.57796170       0.13800890
    93  C          0.93089120       0.76936830       0.62261880
    94  C          0.56910880       0.26936830       0.87738120
    95  C          0.06910880       0.23063170       0.37738120
    96  C          0.43089120       0.73063170       0.12261880
    97  C         -0.00631880       0.66561820       0.60045880
    98  C          0.50631880       0.16561820       0.89954120
    99  C          0.00631880       0.33438180       0.39954120
   100  C          0.49368120       0.83438180       0.10045880
   101  C          0.12131120       0.84784830       0.60585880
   102  C          0.37868880       0.34784830       0.89414120
   103  C          0.87868880       0.15215170       0.39414120
   104  C          0.62131120       0.65215170       0.10585880
   105  C          0.06351120       0.95884820       0.62845880
   106  C          0.43648880       0.45884820       0.87154120
   107  C          0.93648880       0.04115180       0.37154120
   108  C          0.56351120       0.54115180       0.12845880
   109  H          0.13001700       0.63270000       0.57908300
   110  H          0.36998300       0.13270000       0.92091700
   111  H          0.86998300       0.36730000       0.42091700
   112  H          0.63001700       0.86730000       0.07908300
   113  H          0.93011400       0.24220000       0.62488500
   114  H          0.56988600       0.74220000       0.87511500
   115  H          0.06988600       0.75780000       0.37511500
   116  H          0.43011400       0.25780000       0.12488500
   117  H          0.01311600       0.18620000       0.73378500
   118  H          0.48688400       0.68620000       0.76621500
   119  H         -0.01311600       0.81380000       0.26621500
   120  H          0.51311600       0.31380000       0.23378500
   121  H          0.89601400       0.21420000       0.81538500
   122  H          0.60398600       0.71420000       0.68461500
   123  H          0.10398600       0.78580000       0.18461500
   124  H          0.39601400       0.28580000       0.31538500
   125  H          0.85401500       0.34520000       0.73258500
   126  H          0.64598500       0.84520000       0.76741500
   127  H          0.14598500       0.65480000       0.26741500
   128  H          0.35401500       0.15480000       0.23258500
   129  H          0.71441500       0.14920000       0.72188400
   130  H          0.78558500       0.64920000       0.77811600
   131  H          0.28558500       0.85080000       0.27811600
   132  H          0.21441500       0.35080000       0.22188400
   133  H          0.72151500       0.19420000       0.61448400
   134  H          0.77848500       0.69420000       0.88551600
   135  H          0.27848500       0.80580000       0.38551600
   136  H          0.22151500       0.30580000       0.11448400
   137  H          0.81441400       0.93480000       0.73458600
   138  H          0.68558600       0.43480000       0.76541400
   139  H          0.18558600       0.06520000       0.26541400
   140  H          0.31441400       0.56520000       0.23458600
   141  H          0.75221500       0.94080000       0.60868500
   142  H          0.74778500       0.44080000       0.89131500
   143  H          0.24778500       0.05920000       0.39131500
   144  H          0.25221500       0.55920000       0.10868500
   145  H          0.86601600       0.73580000       0.63138500
   146  H          0.63398400       0.23580000       0.86861500
   147  H          0.13398400       0.26420000       0.36861500
   148  H          0.36601600       0.76420000       0.13138500
   149  H          0.97521400       0.55980000       0.59028500
   150  H          0.52478600       0.05980000       0.90971500
   151  H          0.02478600       0.44020000       0.40971500
   152  H          0.47521400       0.94020000       0.09028500
   153  H          0.18921500       0.86780000       0.59828600
   154  H          0.31078500       0.36780000       0.90171400
   155  H          0.81078500       0.13220000       0.40171400
   156  H          0.68921500       0.63220000       0.09828600
   157  H          0.08911400       0.05820000       0.63658600
   158  H          0.41088600       0.55820000       0.86341400
   159  H          0.91088600       0.94180000       0.36341400
   160  H          0.58911400       0.44180000       0.13658600
