data_UMAXUD01
_symmetry_space_group_name_H-M    'P1'
_symmetry_Int_Tables_number       1
loop_
_symmetry_equiv_pos_site_id
_symmetry_equiv_pos_as_xyz
1 x,y,z
_cell_length_a                   7.46096
_cell_length_b                   13.090714
_cell_length_c                   15.366317
_cell_angle_alpha                90.0
_cell_angle_beta                 92.5763
_cell_angle_gamma                90.0
loop_
_atom_site_label
_atom_site_type_symbol
_atom_site_fract_x
_atom_site_fract_y
_atom_site_fract_z
     1  N          0.29965000       0.47514000       0.54592000
     2  N          0.70035000       0.97514000       0.95408000
     3  N          0.70035000       0.52486000       0.45408000
     4  N          0.29965000       0.02486000       0.04592000
     5  H          0.23790200       0.48506700       0.49034900
     6  H          0.76209800       0.98506700       0.00965100
     7  H          0.76209800       0.51493300       0.50965100
     8  H          0.23790200       0.01493300       0.99034900
     9  N          0.54705000       0.43084000       0.78722000
    10  N          0.45295000       0.93084000       0.71278000
    11  N          0.45295000       0.56916000       0.21278000
    12  N          0.54705000       0.06916000       0.28722000
    13  C          0.40156000       0.54224000       0.68213000
    14  C          0.59844000       0.04224000       0.81787000
    15  C          0.59844000       0.45776000       0.31787000
    16  C          0.40156000       0.95776000       0.18213000
    17  H          0.41468000       0.59893100       0.72035700
    18  H          0.58532000       0.09893100       0.77964300
    19  H          0.58532000       0.40106900       0.27964300
    20  H          0.41468000       0.90106900       0.22035700
    21  C          0.31606000       0.55314000       0.60283000
    22  C          0.68394000       0.05314000       0.89717000
    23  C          0.68394000       0.44686000       0.39717000
    24  C          0.31606000       0.94686000       0.10283000
    25  H          0.26639500       0.61761800       0.58695800
    26  H          0.73360500       0.11761800       0.91304200
    27  H          0.73360500       0.38238200       0.41304200
    28  H          0.26639500       0.88238200       0.08695800
    29  C          0.36976000       0.38325000       0.56703000
    30  C          0.63024000       0.88325000       0.93297000
    31  C          0.63024000       0.61675000       0.43297000
    32  C          0.36976000       0.11675000       0.06703000
    33  H          0.35796800       0.32902200       0.52603400
    34  H          0.64203200       0.82902200       0.97396600
    35  H          0.64203200       0.67097800       0.47396600
    36  H          0.35796800       0.17097800       0.02603400
    37  C          0.45636000       0.36574000       0.64473000
    38  C          0.54364000       0.86574000       0.85527000
    39  C          0.54364000       0.63426000       0.35527000
    40  C          0.45636000       0.13426000       0.14473000
    41  H          0.50704900       0.30050200       0.65713400
    42  H          0.49295100       0.80050200       0.84286600
    43  H          0.49295100       0.69949800       0.34286600
    44  H          0.50704900       0.19949800       0.15713400
    45  C          0.47125000       0.44464000       0.70733000
    46  C          0.52875000       0.94464000       0.79267000
    47  C          0.52875000       0.55536000       0.29267000
    48  C          0.47125000       0.05536000       0.20733000
    49  C          0.57676000       0.51154000       0.85173000
    50  C          0.42324000       0.01154000       0.64827000
    51  C          0.42324000       0.48846000       0.14827000
    52  C          0.57676000       0.98846000       0.35173000
    53  H          0.46144400       0.54137300       0.86870200
    54  H          0.53855600       0.04137300       0.63129800
    55  H          0.53855600       0.45862700       0.13129800
    56  H          0.46144400       0.95862700       0.36870200
    57  H          0.65279300       0.56645700       0.82896000
    58  H          0.34720700       0.06645700       0.67104000
    59  H          0.34720700       0.43354300       0.17104000
    60  H          0.65279300       0.93354300       0.32896000
    61  C          0.67096000       0.45795000       0.92813000
    62  C          0.32904000       0.95795000       0.57187000
    63  C          0.32904000       0.54205000       0.07187000
    64  C          0.67096000       0.04205000       0.42813000
    65  H          0.63973000       0.48978300       0.98386000
    66  H          0.36027000      -0.01021700       0.51614000
    67  H          0.36027000       0.51021700       0.01614000
    68  H          0.63973000       0.01021700       0.48386000
    69  H          0.80267300       0.46012600       0.92330100
    70  H          0.19732700       0.96012600       0.57669900
    71  H          0.19732700       0.53987400       0.07669900
    72  H          0.80267300       0.03987400       0.42330100
    73  C          0.60177000       0.34815000       0.92213000
    74  C          0.39823000       0.84815000       0.57787000
    75  C          0.39823000       0.65185000       0.07787000
    76  C          0.60177000       0.15185000       0.42213000
    77  H          0.48283200       0.34176000       0.94777900
    78  H          0.51716800       0.84176000       0.55222100
    79  H          0.51716800       0.65824000       0.05222100
    80  H          0.48283200       0.15824000       0.44777900
    81  H          0.68650500       0.30018000       0.95211100
    82  H          0.31349500       0.80018000       0.54788900
    83  H          0.31349500       0.69982000       0.04788900
    84  H          0.68650500       0.19982000       0.45211100
    85  C          0.58876000       0.32784000       0.82383000
    86  C          0.41124000       0.82784000       0.67617000
    87  C          0.41124000       0.67216000       0.17617000
    88  C          0.58876000       0.17216000       0.32383000
    89  H          0.70345100       0.30142600       0.80287400
    90  H          0.29654900       0.80142600       0.69712600
    91  H          0.29654900       0.69857400       0.19712600
    92  H          0.70345100       0.19857400       0.30287400
    93  H          0.49176900       0.27846700       0.80830900
    94  H          0.50823100       0.77846700       0.69169100
    95  H          0.50823100       0.72153300       0.19169100
    96  H          0.49176900       0.22153300       0.30830900
    97  S          0.05600170       0.77896110       0.38424700
    98  S          0.94399830       0.27896110       0.11575300
    99  S          0.94399830       0.22103890       0.61575300
   100  S          0.05600170       0.72103890       0.88424700
   101  O          0.21534000       0.84033000       0.37292000
   102  O          0.78466000       0.34033000       0.12708000
   103  O          0.78466000       0.15967000       0.62708000
   104  O          0.21534000       0.65967000       0.87292000
   105  O          0.91086000       0.82893000       0.42592000
   106  O          0.08914000       0.32893000       0.07408000
   107  O          0.08914000       0.17107000       0.57408000
   108  O          0.91086000       0.67107000       0.92592000
   109  O          0.11354000       0.50143000       0.39253190
   110  O          0.88646000       0.00143000       0.10746810
   111  O          0.88646000       0.49857000       0.60746810
   112  O          0.11354000      -0.00143000       0.89253190
   113  N          0.10685000       0.67114000       0.43092000
   114  N          0.89315000       0.17114000       0.06908000
   115  N          0.89315000       0.32886000       0.56908000
   116  N          0.10685000       0.82886000       0.93092000
   117  C         -0.01875000       0.73034000       0.28223000
   118  C          0.01875000       0.23034000       0.21777000
   119  C          0.01875000       0.26966000       0.71777000
   120  C         -0.01875000       0.76966000       0.78223000
   121  C          0.92274000       0.77904000       0.20643000
   122  C          0.07726000       0.27904000       0.29357000
   123  C          0.07726000       0.22096000       0.79357000
   124  C          0.92274000       0.72096000       0.70643000
   125  H          0.90979900       0.85116300       0.20372200
   126  H          0.09020100       0.35116300       0.29627800
   127  H          0.09020100       0.14883700       0.79627800
   128  H          0.90979900       0.64883700       0.70372200
   129  C          0.88374000       0.71764000       0.13393000
   130  C          0.11626000       0.21764000       0.36607000
   131  C          0.11626000       0.28236000       0.86607000
   132  C          0.88374000       0.78236000       0.63393000
   133  H          0.84755600       0.74872600       0.08007700
   134  H          0.15244400       0.24872600       0.41992300
   135  H          0.15244400       0.25127400       0.91992300
   136  H          0.84755600       0.75127400       0.58007700
   137  C          0.89684000       0.61114000       0.13853000
   138  C          0.10316000       0.11114000       0.36147000
   139  C          0.10316000       0.38886000       0.86147000
   140  C          0.89684000       0.88886000       0.63853000
   141  H          0.86597500       0.57102400       0.08858400
   142  H          0.13402500       0.07102400       0.41141600
   143  H          0.13402500       0.42897600       0.91141600
   144  H          0.86597500       0.92897600       0.58858400
   145  C          0.95475000       0.56354000       0.21573000
   146  C          0.04525000       0.06354000       0.28427000
   147  C          0.04525000       0.43646000       0.78427000
   148  C          0.95475000       0.93646000       0.71573000
   149  H          0.96352200       0.49116700       0.21887300
   150  H          0.03647800      -0.00883300       0.28112700
   151  H          0.03647800       0.50883300       0.78112700
   152  H          0.96352200       0.00883300       0.71887300
   153  C         -0.00075000       0.62294000       0.28753000
   154  C          0.00075000       0.12294000       0.21247000
   155  C          0.00075000       0.37706000       0.71247000
   156  C         -0.00075000       0.87706000       0.78753000
   157  C          0.07886000       0.59234000       0.37543000
   158  C          0.92114000       0.09234000       0.12457000
   159  C          0.92114000       0.40766000       0.62457000
   160  C          0.07886000       0.90766000       0.87543000
