data_UMAXUD02
_symmetry_space_group_name_H-M    'P1'
_symmetry_Int_Tables_number       1
loop_
_symmetry_equiv_pos_site_id
_symmetry_equiv_pos_as_xyz
1 x,y,z
_cell_length_a                   8.09853
_cell_length_b                   8.16353
_cell_length_c                   23.22868
_cell_angle_alpha                90.0
_cell_angle_beta                 93.5413
_cell_angle_gamma                90.0
loop_
_atom_site_label
_atom_site_type_symbol
_atom_site_fract_x
_atom_site_fract_y
_atom_site_fract_z
     1  N          0.23786000       0.44816000       0.54362000
     2  N          0.26214000       0.94816000       0.95638000
     3  N          0.76214000       0.55184000       0.45638000
     4  N          0.73786000       0.05184000       0.04362000
     5  H          0.20786700       0.54738400       0.52346100
     6  H          0.29213300       0.04738400       0.97653900
     7  H          0.79213300       0.45261600       0.47653900
     8  H          0.70786700       0.95261600       0.02346100
     9  N          0.36756000       0.02406000       0.63032000
    10  N          0.13244000       0.52406000       0.86968000
    11  N          0.63244000       0.97594000       0.36968000
    12  N          0.86756000       0.47594000       0.13032000
    13  C          0.35228000       0.18198000       0.54303000
    14  C          0.14772000       0.68198000       0.95697000
    15  C          0.64772000       0.81802000       0.45697000
    16  C          0.85228000       0.31802000       0.04303000
    17  H          0.39866900       0.09516800       0.52209300
    18  H          0.10133100       0.59516800       0.97790700
    19  H          0.60133100       0.90483200       0.47790700
    20  H          0.89866900       0.40483200       0.02209300
    21  C          0.30981000       0.32458000       0.51583000
    22  C          0.19019000       0.82458000       0.98417000
    23  C          0.69019000       0.67542000       0.48417000
    24  C          0.80981000       0.17542000       0.01583000
    25  H          0.33133700       0.33748900       0.47630200
    26  H          0.16866300       0.83748900       0.02369800
    27  H          0.66866300       0.66251100       0.52369800
    28  H          0.83133700       0.16251100       0.97630200
    29  C          0.20798000       0.43167000       0.60013000
    30  C          0.29202000       0.93167000       0.89987000
    31  C          0.79202000       0.56833000       0.39987000
    32  C          0.70798000       0.06833000       0.10013000
    33  H          0.15353000       0.51757800       0.61894700
    34  H          0.34647000       0.01757800       0.88105300
    35  H          0.84647000       0.48242200       0.38105300
    36  H          0.65353000       0.98242200       0.11894700
    37  C          0.25367000       0.29587000       0.63012000
    38  C          0.24633000       0.79587000       0.86988000
    39  C          0.74633000       0.70413000       0.36988000
    40  C          0.75367000       0.20413000       0.13012000
    41  H          0.23609200       0.28967200       0.67013400
    42  H          0.26390800       0.78967200       0.82986600
    43  H          0.76390800       0.71032800       0.32986600
    44  H          0.73609200       0.21032800       0.17013400
    45  C          0.32767000       0.16207000       0.60242000
    46  C          0.17233000       0.66207000       0.89758000
    47  C          0.67233000       0.83793000       0.39758000
    48  C          0.82767000       0.33793000       0.10242000
    49  C          0.44208000       0.88193000       0.60293000
    50  C          0.05792000       0.38193000       0.89707000
    51  C          0.55792000       0.11807000       0.39707000
    52  C          0.94208000       0.61807000       0.10293000
    53  H          0.54436300       0.91359900       0.58453600
    54  H          0.95563700       0.41359900       0.91546400
    55  H          0.45563700       0.08640100       0.41546400
    56  H          0.04436300       0.58640100       0.08453600
    57  H          0.36371000       0.83243500       0.57349200
    58  H          0.13629000       0.33243500       0.92650800
    59  H          0.63629000       0.16756500       0.42650800
    60  H          0.86371000       0.66756500       0.07349200
    61  C          0.48008000       0.76362000       0.65323000
    62  C          0.01992000       0.26362000       0.84677000
    63  C          0.51992000       0.23638000       0.34677000
    64  C          0.98008000       0.73638000       0.15323000
    65  H          0.46497600       0.64865000       0.64053300
    66  H          0.03502400       0.14865000       0.85946700
    67  H          0.53502400       0.35135000       0.35946700
    68  H          0.96497600       0.85135000       0.14053300
    69  H          0.59498300       0.77829200       0.66951400
    70  H          0.90501700       0.27829200       0.83048600
    71  H          0.40501700       0.22170800       0.33048600
    72  H          0.09498300       0.72170800       0.16951400
    73  C          0.35778000       0.80792000       0.69703000
    74  C          0.14222000       0.30792000       0.80297000
    75  C          0.64222000       0.19208000       0.30297000
    76  C          0.85778000       0.69208000       0.19703000
    77  H          0.39970300       0.77691300       0.73645700
    78  H          0.10029700       0.27691300       0.76354300
    79  H          0.60029700       0.22308700       0.26354300
    80  H          0.89970300       0.72308700       0.23645700
    81  H          0.24980600       0.75387300       0.68813200
    82  H          0.25019400       0.25387300       0.81186800
    83  H          0.75019400       0.24612700       0.31186800
    84  H          0.74980600       0.74612700       0.18813200
    85  C          0.34278000      -0.00607000       0.69103000
    86  C          0.15722000       0.49393000       0.80897000
    87  C          0.65722000       0.00607000       0.30897000
    88  C          0.84278000       0.50607000       0.19103000
    89  H          0.23216300       0.03208800       0.70115800
    90  H          0.26783700       0.53208800       0.79884200
    91  H          0.76783700       0.96791200       0.29884200
    92  H          0.73216300       0.46791200       0.20115800
    93  H          0.42832500       0.05025400       0.71607300
    94  H          0.07167500       0.55025400       0.78392700
    95  H          0.57167500       0.94974600       0.28392700
    96  H          0.92832500       0.44974600       0.21607300
    97  S          0.21853170       0.63479160       0.34459600
    98  S          0.28146830       0.13479160       0.15540400
    99  S          0.78146830       0.36520840       0.65540400
   100  S          0.71853170       0.86520840       0.84459600
   101  O          0.09525000       0.53975000       0.31161170
   102  O          0.40475000       0.03975000       0.18838830
   103  O          0.90475000       0.46025000       0.68838830
   104  O          0.59525000       0.96025000       0.81161170
   105  O          0.38535000       0.62225000       0.32603180
   106  O          0.11465000       0.12225000       0.17396820
   107  O          0.61465000       0.37775000       0.67396820
   108  O          0.88535000       0.87775000       0.82603180
   109  O          0.14906000       0.73645000       0.49442170
   110  O          0.35094000       0.23645000       0.00557830
   111  O          0.85094000       0.26355000       0.50557830
   112  O          0.64906000       0.76355000      -0.00557830
   113  N          0.21257000       0.59766000       0.41312000
   114  N          0.28743000       0.09766000       0.08688000
   115  N          0.78743000       0.40234000       0.58688000
   116  N          0.71257000       0.90234000       0.91312000
   117  C          0.15867000       0.84357000       0.34672000
   118  C          0.34133000       0.34357000       0.15328000
   119  C          0.84133000       0.15643000       0.65328000
   120  C          0.65867000       0.65643000       0.84672000
   121  C          0.14097000       0.95907000       0.30293000
   122  C          0.35903000       0.45907000       0.19707000
   123  C          0.85903000       0.04093000       0.69707000
   124  C          0.64097000       0.54093000       0.80293000
   125  H          0.15892200       0.93221200       0.26402200
   126  H          0.34107800       0.43221200       0.23597800
   127  H          0.84107800       0.06778800       0.73597800
   128  H          0.65892200       0.56778800       0.76402200
   129  C          0.09548000       0.11617000       0.31903000
   130  C          0.40452000       0.61617000       0.18097000
   131  C          0.90452000       0.88383000       0.68097000
   132  C          0.59548000       0.38383000       0.81903000
   133  H          0.08176700       0.19916200       0.29045300
   134  H          0.41823300       0.69916200       0.20954700
   135  H          0.91823300       0.80083800       0.70954700
   136  H          0.58176700       0.30083800       0.79045300
   137  C          0.06967000       0.15327000       0.37633000
   138  C          0.43033000       0.65327000       0.12367000
   139  C          0.93033000       0.84673000       0.62367000
   140  C          0.56967000       0.34673000       0.87633000
   141  H          0.03982300       0.26183900       0.38602200
   142  H          0.46017700       0.76183900       0.11397800
   143  H          0.96017700       0.73816100       0.61397800
   144  H          0.53982300       0.23816100       0.88602200
   145  C          0.08627000       0.03627000       0.41943000
   146  C          0.41373000       0.53627000       0.08057000
   147  C          0.91373000       0.96373000       0.58057000
   148  C          0.58627000       0.46373000       0.91943000
   149  H          0.06543900       0.06168400       0.45819300
   150  H          0.43456100       0.56168400       0.04180700
   151  H          0.93456100       0.93831600       0.54180700
   152  H          0.56543900       0.43831600       0.95819300
   153  C          0.13467000       0.87927000       0.40352000
   154  C          0.36533000       0.37927000       0.09648000
   155  C          0.86533000       0.12073000       0.59648000
   156  C          0.63467000       0.62073000       0.90352000
   157  C          0.16347000       0.73157000       0.44152000
   158  C          0.33653000       0.23157000       0.05848000
   159  C          0.83653000       0.26843000       0.55848000
   160  C          0.66347000       0.76843000       0.94152000
