data_UNOGIN
_symmetry_space_group_name_H-M    'P1'
_symmetry_Int_Tables_number       1
loop_
_symmetry_equiv_pos_site_id
_symmetry_equiv_pos_as_xyz
1 x,y,z
_cell_length_a                   10.3883
_cell_length_b                   14.8394
_cell_length_c                   10.5673
_cell_angle_alpha                90.0
_cell_angle_beta                 100.643
_cell_angle_gamma                90.0
loop_
_atom_site_label
_atom_site_type_symbol
_atom_site_fract_x
_atom_site_fract_y
_atom_site_fract_z
     1  S          0.52188300       0.89878300       0.11882300
     2  S          0.47811700       0.39878300       0.38117700
     3  S          0.47811700       0.10121700       0.88117700
     4  S          0.52188300       0.60121700       0.61882300
     5  N          0.38761100       0.83476800       0.51107100
     6  N          0.61238900       0.33476800      -0.01107100
     7  N          0.61238900       0.16523200       0.48892900
     8  N          0.38761100       0.66523200       0.01107100
     9  C          0.26956120       0.84261900       0.42038120
    10  C          0.73043880       0.34261900       0.07961880
    11  C          0.73043880       0.15738100       0.57961880
    12  C          0.26956120       0.65738100       0.92038120
    13  C          0.25160120       0.81895900       0.28916120
    14  C          0.74839880       0.31895900       0.21083880
    15  C          0.74839880       0.18104100       0.71083880
    16  C          0.25160120       0.68104100       0.78916120
    17  N          0.36065110       0.79246900       0.23547110
    18  N          0.63934890       0.29246900       0.26452890
    19  N          0.63934890       0.20753100       0.76452890
    20  N          0.36065110       0.70753100       0.73547110
    21  C          0.46354120       0.85365900       0.24849120
    22  C          0.53645880       0.35365900       0.25150880
    23  C          0.53645880       0.14634100       0.75150880
    24  C          0.46354120       0.64634100       0.74849120
    25  C          0.52871120       0.88755900       0.36237120
    26  C          0.47128880       0.38755900       0.13762880
    27  C          0.47128880       0.11244100       0.63762880
    28  C          0.52871120       0.61244100       0.86237120
    29  C          0.50121120       0.85724900       0.48737120
    30  C          0.49878880       0.35724900       0.01262880
    31  C          0.49878880       0.14275100       0.51262880
    32  C          0.50121120       0.64275100      -0.01262880
    33  C          0.62748130       0.95098900       0.34418130
    34  C          0.37251870       0.45098900       0.15581870
    35  C          0.37251870       0.04901100       0.65581870
    36  C          0.62748130       0.54901100       0.84418130
    37  C          0.63778140       0.96345100       0.21947140
    38  C          0.36221860       0.46345100       0.28052860
    39  C          0.36221860       0.03654900       0.78052860
    40  C          0.63778140       0.53654900       0.71947140
    41  C          0.73012000       0.02353150       0.16574180
    42  C          0.26988000       0.52353150       0.33425820
    43  C          0.26988000       0.97646850       0.83425820
    44  C          0.73012000       0.47646850       0.66574180
    45  C          0.12725140       0.81999110       0.21359140
    46  C          0.87274860       0.31999110       0.28640860
    47  C          0.87274860       0.18000890       0.78640860
    48  C          0.12725140       0.68000890       0.71359140
    49  C          0.01889140       0.84425120       0.26501150
    50  C          0.98110860       0.34425120       0.23498850
    51  C          0.98110860       0.15574880       0.73498850
    52  C          0.01889140       0.65574880       0.76501150
    53  C          0.03459140       0.86920120       0.39256160
    54  C          0.96540860       0.36920120       0.10743840
    55  C          0.96540860       0.13079880       0.60743840
    56  C          0.03459140       0.63079880       0.89256160
    57  C          0.15850130       0.86737100       0.46919130
    58  C          0.84149870       0.36737100       0.03080870
    59  C          0.84149870       0.13262900       0.53080870
    60  C          0.15850130       0.63262900       0.96919130
    61  N          0.60758100       0.85945800       0.58712100
    62  N          0.39241900       0.35945800       0.91287900
    63  N          0.39241900       0.14054200       0.41287900
    64  N          0.60758100       0.64054200       0.08712100
    65  C          0.73349130       0.82038110       0.57117140
    66  C          0.26650870       0.32038110       0.92882860
    67  C          0.26650870       0.17961890       0.42882860
    68  C          0.73349130       0.67961890       0.07117140
    69  C          0.84432130       0.86637110       0.66141140
    70  C          0.15567870       0.36637110       0.83858860
    71  C          0.15567870       0.13362890       0.33858860
    72  C          0.84432130       0.63362890       0.16141140
    73  N          0.82546110       0.85776900       0.79376110
    74  N          0.17453890       0.35776900       0.70623890
    75  N          0.17453890       0.14223100       0.20623890
    76  N          0.82546110       0.64223100       0.29376110
    77  C          0.70196140       0.90021110       0.80667130
    78  C          0.29803860       0.40021110       0.69332870
    79  C          0.29803860       0.09978890       0.19332870
    80  C          0.70196140       0.59978890       0.30667130
    81  C          0.58908130       0.85389100       0.72025120
    82  C          0.41091870       0.35389100       0.77974880
    83  C          0.41091870       0.14610900       0.27974880
    84  C          0.58908130       0.64610900       0.22025120
    85  C          0.93548190       0.89662000       0.88282000
    86  C          0.06451810       0.39662000       0.61718000
    87  C          0.06451810       0.10338000       0.11718000
    88  C          0.93548190       0.60338000       0.38282000
    89  H          0.34681800       0.76161400       0.16591900
    90  H          0.65318200       0.26161400       0.33408100
    91  H          0.65318200       0.23838600       0.83408100
    92  H          0.34681800       0.73838600       0.66591900
    93  H          0.67961600       0.98291100       0.41351600
    94  H          0.32038400       0.48291100       0.08648400
    95  H          0.32038400       0.01708900       0.58648400
    96  H          0.67961600       0.51708900       0.91351600
    97  H          0.69530000       0.08020000       0.14530000
    98  H          0.30470000       0.58020000       0.35470000
    99  H          0.30470000       0.91980000       0.85470000
   100  H          0.69530000       0.41980000       0.64530000
   101  H          0.75920000      -0.00358200       0.09430000
   102  H          0.24080000       0.49641800       0.40570000
   103  H          0.24080000       0.00358200       0.90570000
   104  H          0.75920000       0.50358200       0.59430000
   105  H          0.80920000       0.03471700       0.22920000
   106  H          0.19080000       0.53471700       0.27080000
   107  H          0.19080000       0.96528300       0.77080000
   108  H          0.80920000       0.46528300       0.72920000
   109  H          0.11801700       0.80191200       0.12521800
   110  H          0.88198300       0.30191200       0.37478200
   111  H          0.88198300       0.19808800       0.87478200
   112  H          0.11801700       0.69808800       0.62521800
   113  H          0.93298200       0.84281300       0.21261800
   114  H          0.06701800       0.34281300       0.28738200
   115  H          0.06701800       0.15718700       0.78738200
   116  H          0.93298200       0.65718700       0.71261800
   117  H          0.95868100       0.88771300       0.42941900
   118  H          0.04131900       0.38771300       0.07058100
   119  H          0.04131900       0.11228700       0.57058100
   120  H          0.95868100       0.61228700       0.92941900
   121  H          0.17111600       0.88511200       0.55951700
   122  H          0.82888400       0.38511200       0.94048300
   123  H          0.82888400       0.11488800       0.44048300
   124  H          0.17111600       0.61488800       0.05951700
   125  H          0.73431600       0.75811300       0.59131600
   126  H          0.26568400       0.25811300       0.90868400
   127  H          0.26568400       0.24188700       0.40868400
   128  H          0.73431600       0.74188700       0.09131600
   129  H          0.74651700       0.82691200       0.48371700
   130  H          0.25348300       0.32691200       0.01628300
   131  H          0.25348300       0.17308800       0.51628300
   132  H          0.74651700       0.67308800       0.98371700
   133  H          0.84861700       0.93101200       0.63731700
   134  H          0.15138300       0.43101200       0.86268300
   135  H          0.15138300       0.06898800       0.36268300
   136  H          0.84861700       0.56898800       0.13731700
   137  H          0.92681700       0.83501200       0.65321700
   138  H          0.07318300       0.33501200       0.84678300
   139  H          0.07318300       0.16498800       0.34678300
   140  H          0.92681700       0.66498800       0.15321700
   141  H          0.70261600       0.96611300       0.78421700
   142  H          0.29738400       0.46611300       0.71578300
   143  H          0.29738400       0.03388700       0.21578300
   144  H          0.70261600       0.53388700       0.28421700
   145  H          0.69111800       0.89421200       0.90071900
   146  H          0.30888200       0.39421200       0.59928100
   147  H          0.30888200       0.10578800       0.09928100
   148  H          0.69111800       0.60578800       0.40071900
   149  H          0.58831600       0.78991200       0.74971600
   150  H          0.41168400       0.28991200       0.75028400
   151  H          0.41168400       0.21008800       0.25028400
   152  H          0.58831600       0.71008800       0.24971600
   153  H          0.50181700       0.88601100       0.72321600
   154  H          0.49818300       0.38601100       0.77678400
   155  H          0.49818300       0.11398900       0.27678400
   156  H          0.50181700       0.61398900       0.22321600
   157  H          0.94730000       0.95920000       0.86530000
   158  H          0.05270000       0.45920000       0.63470000
   159  H          0.05270000       0.04080000       0.13470000
   160  H          0.94730000       0.54080000       0.36530000
   161  H          0.92120000       0.89211500       0.97020000
   162  H          0.07880000       0.39211500       0.52980000
   163  H          0.07880000       0.10788500       0.02980000
   164  H          0.92120000       0.60788500       0.47020000
   165  H          0.02020000       0.86681500       0.87620000
   166  H          0.97980000       0.36681500       0.62380000
   167  H          0.97980000       0.13318500       0.12380000
   168  H          0.02020000       0.63318500       0.37620000
