data_UNOGIN06
_symmetry_space_group_name_H-M    'P1'
_symmetry_Int_Tables_number       1
loop_
_symmetry_equiv_pos_site_id
_symmetry_equiv_pos_as_xyz
1 x,y,z
_cell_length_a                   10.7083
_cell_length_b                   16.4764
_cell_length_c                   10.0654
_cell_angle_alpha                90.0
_cell_angle_beta                 110.432
_cell_angle_gamma                90.0
loop_
_atom_site_label
_atom_site_type_symbol
_atom_site_fract_x
_atom_site_fract_y
_atom_site_fract_z
     1  S          0.39377000       0.69306180       0.18835000
     2  S          0.60623000       0.19306180       0.31165000
     3  S          0.60623000       0.30693820       0.81165000
     4  S          0.39377000       0.80693820       0.68835000
     5  C          0.71214000       0.66384000       0.63213000
     6  C          0.28786000       0.16384000       0.86787000
     7  C          0.28786000       0.33616000       0.36787000
     8  C          0.71214000       0.83616000       0.13213000
     9  N          0.60493000       0.63954000       0.67562000
    10  N          0.39507000       0.13954000       0.82438000
    11  N          0.39507000       0.36046000       0.32438000
    12  N          0.60493000       0.86046000       0.17562000
    13  C          0.25794000       0.60155000       0.59813000
    14  C          0.74206000       0.10155000       0.90187000
    15  C          0.74206000       0.39845000       0.40187000
    16  C          0.25794000       0.89845000       0.09813000
    17  C          0.33923000       0.58134000       0.34232000
    18  C          0.66077000       0.08134000       0.15768000
    19  C          0.66077000       0.41866000       0.65768000
    20  C          0.33923000       0.91866000       0.84232000
    21  C          0.29623000       0.61084000       0.20169000
    22  C          0.70377000       0.11084000       0.29831000
    23  C          0.70377000       0.38916000       0.79831000
    24  C          0.29623000       0.88916000       0.70169000
    25  C          0.70384000       0.71834000       0.52312000
    26  C          0.29616000       0.21834000       0.97688000
    27  C          0.29616000       0.28166000       0.47688000
    28  C          0.70384000       0.78166000       0.02312000
    29  C          0.48763000       0.62094000       0.59039000
    30  C          0.51237000       0.12094000       0.90961000
    31  C          0.51237000       0.37906000       0.40961000
    32  C          0.48763000       0.87906000       0.09039000
    33  C          0.83884000       0.63574000       0.71382000
    34  C          0.16116000       0.13574000       0.78618000
    35  C          0.16116000       0.36426000       0.28618000
    36  C          0.83884000       0.86426000       0.21382000
    37  N          0.39893000       0.58544000       0.64612000
    38  N          0.60107000       0.08544000       0.85388000
    39  N          0.60107000       0.41456000       0.35388000
    40  N          0.39893000       0.91456000       0.14612000
    41  N          0.58473000       0.74424000       0.43282000
    42  N          0.41527000       0.24424000       0.06718000
    43  N          0.41527000       0.25576000       0.56718000
    44  N          0.58473000       0.75576000       0.93282000
    45  C          0.35973000       0.48284000       0.79862000
    46  C          0.64027000       0.98284000       0.70138000
    47  C          0.64027000       0.51716000       0.20138000
    48  C          0.35973000       0.01716000       0.29862000
    49  C          0.17802000       0.52974000       0.60679000
    50  C          0.82198000       0.02974000       0.89321000
    51  C          0.82198000       0.47026000       0.39321000
    52  C          0.17802000       0.97026000       0.10679000
    53  C          0.48343000       0.69364000       0.37013000
    54  C          0.51657000       0.19364000       0.12987000
    55  C          0.51657000       0.30636000       0.62987000
    56  C          0.48343000       0.80636000       0.87013000
    57  C          0.44213000       0.55554000       0.78959000
    58  C          0.55787000       0.05554000       0.71041000
    59  C          0.55787000       0.44446000       0.21041000
    60  C          0.44213000       0.94446000       0.28959000
    61  C          0.95692000       0.66034000       0.69562000
    62  C          0.04308000       0.16034000       0.80438000
    63  C          0.04308000       0.33966000       0.30438000
    64  C          0.95692000       0.83966000       0.19562000
    65  N          0.22113000       0.49864000       0.74889000
    66  N          0.77887000      -0.00136000       0.75111000
    67  N          0.77887000       0.50136000       0.25111000
    68  N          0.22113000       0.00136000       0.24889000
    69  C          0.43893000       0.62934000       0.43541000
    70  C          0.56107000       0.12934000       0.06459000
    71  C          0.56107000       0.37066000       0.56459000
    72  C          0.43893000       0.87066000       0.93541000
    73  C          0.82055000       0.74204000       0.50142000
    74  C          0.17945000       0.24204000      -0.00142000
    75  C          0.17945000       0.25796000       0.49858000
    76  C          0.82055000       0.75796000       0.00142000
    77  C          0.14561000       0.43265000       0.76928800
    78  C          0.85439000       0.93265000       0.73071200
    79  C          0.85439000       0.56735000       0.23071200
    80  C          0.14561000       0.06735000       0.26928800
    81  C          0.19223000       0.57706000       0.06819000
    82  C          0.80777000       0.07706000       0.43181000
    83  C          0.80777000       0.42294000       0.93181000
    84  C          0.19223000       0.92294000       0.56819000
    85  C          0.94713000       0.71694000       0.58913000
    86  C          0.05287000       0.21694000       0.91087000
    87  C          0.05287000       0.28306000       0.41087000
    88  C          0.94713000       0.78306000       0.08913000
    89  H          0.10453600       0.56248500       0.08917800
    90  H          0.89546400       0.06248500       0.41082200
    91  H          0.89546400       0.43751500       0.91082200
    92  H          0.10453600       0.93751500       0.58917800
    93  H          0.16994500       0.62099900      -0.01360600
    94  H          0.83005500       0.12099900       0.51360600
    95  H          0.83005500       0.37900100       0.01360600
    96  H          0.16994500       0.87900100       0.48639400
    97  H          0.22996600       0.52392500       0.03598800
    98  H          0.77003400       0.02392500       0.46401200
    99  H          0.77003400       0.47607500       0.96401200
   100  H          0.22996600       0.97607500       0.53598800
   101  H          0.30010000       0.52849700       0.37367800
   102  H          0.69990000       0.02849700       0.12632200
   103  H          0.69990000       0.47150300       0.62632200
   104  H          0.30010000       0.97150300       0.87367800
   105  H          0.07615000       0.54607800       0.57472300
   106  H          0.92385000       0.04607800       0.92527700
   107  H          0.92385000       0.45392200       0.42527700
   108  H          0.07615000       0.95392200       0.07472300
   109  H          0.18844300       0.48399100       0.53722800
   110  H          0.81155700       0.98399100       0.96277200
   111  H          0.81155700       0.51600900       0.46277200
   112  H          0.18844300       0.01600900       0.03722800
   113  H          0.04666100       0.45189100       0.75121800
   114  H          0.95333900       0.95189100       0.74878200
   115  H          0.95333900       0.54810900       0.24878200
   116  H          0.04666100       0.04810900       0.25121800
   117  H          0.14481300       0.38544100       0.69728900
   118  H          0.85518700       0.88544100       0.80271100
   119  H          0.85518700       0.61455900       0.30271100
   120  H          0.14481300       0.11455900       0.19728900
   121  H          0.18880800       0.41087400       0.87461900
   122  H          0.81119200       0.91087400       0.62538100
   123  H          0.81119200       0.58912600       0.12538100
   124  H          0.18880800       0.08912600       0.37461900
   125  H          0.22573200       0.62287500       0.49221700
   126  H          0.77426800       0.12287500       0.00778300
   127  H          0.77426800       0.37712500       0.50778300
   128  H          0.22573200       0.87712500      -0.00778300
   129  H          0.23894900       0.64955200       0.65846000
   130  H          0.76105100       0.14955200       0.84154000
   131  H          0.76105100       0.35044800       0.34154000
   132  H          0.23894900       0.85044800       0.15846000
   133  H          0.37986700       0.43396800       0.74055300
   134  H          0.62013300       0.93396800       0.75944700
   135  H          0.62013300       0.56603200       0.25944700
   136  H          0.37986700       0.06603200       0.24055300
   137  H          0.39046200       0.46226200       0.90511600
   138  H          0.60953800       0.96226200       0.59488400
   139  H          0.60953800       0.53773800       0.09488400
   140  H          0.39046200       0.03773800       0.40511600
   141  H          0.43135200       0.60184800       0.85782000
   142  H          0.56864800       0.10184800       0.64218000
   143  H          0.56864800       0.39815200       0.14218000
   144  H          0.43135200       0.89815200       0.35782000
   145  H          0.54402000       0.53864200       0.82190900
   146  H          0.45598000       0.03864200       0.67809100
   147  H          0.45598000       0.46135800       0.17809100
   148  H          0.54402000       0.96135800       0.32190900
   149  H          0.57161200       0.80414100       0.41189000
   150  H          0.42838800       0.30414100       0.08811000
   151  H          0.42838800       0.19585900       0.58811000
   152  H          0.57161200       0.69585900       0.91189000
   153  H          0.84604200       0.59300700       0.79500900
   154  H          0.15395800       0.09300700       0.70499100
   155  H          0.15395800       0.40699300       0.20499100
   156  H          0.84604200       0.90699300       0.29500900
   157  H          0.05059200       0.63685500       0.76045100
   158  H          0.94940800       0.13685500       0.73954900
   159  H          0.94940800       0.36314500       0.23954900
   160  H          0.05059200       0.86314500       0.26045100
   161  H          0.81273400       0.78072700       0.41474800
   162  H          0.18726600       0.28072700       0.08525200
   163  H          0.18726600       0.21927300       0.58525200
   164  H          0.81273400       0.71927300       0.91474800
   165  H          0.03395800       0.74035300       0.57515500
   166  H          0.96604200       0.24035300       0.92484500
   167  H          0.96604200       0.25964700       0.42484500
   168  H          0.03395800       0.75964700       0.07515500
