data_UNOGIN02
_symmetry_space_group_name_H-M    'P1'
_symmetry_Int_Tables_number       1
loop_
_symmetry_equiv_pos_site_id
_symmetry_equiv_pos_as_xyz
1 x,y,z
_cell_length_a                   9.91308
_cell_length_b                   16.532913
_cell_length_c                   9.99928
_cell_angle_alpha                90.0
_cell_angle_beta                 98.02301
_cell_angle_gamma                90.0
loop_
_atom_site_label
_atom_site_type_symbol
_atom_site_fract_x
_atom_site_fract_y
_atom_site_fract_z
     1  S          0.40573500       0.19412300       0.25828500
     2  S          0.59426500       0.69412300       0.24171500
     3  S          0.59426500       0.80587700       0.74171500
     4  S          0.40573500       0.30587700       0.75828500
     5  N          0.60588150       0.13996900       0.86694860
     6  N          0.39411850       0.63996900       0.63305140
     7  N          0.39411850       0.86003100       0.13305140
     8  N          0.60588150       0.36003100       0.36694860
     9  N          0.58482160       0.25183100       0.09664170
    10  N          0.41517840       0.75183100       0.40335830
    11  N          0.41517840       0.74816900       0.90335830
    12  N          0.58482160       0.24816900       0.59664170
    13  N          0.39428150       0.08739100       0.79846850
    14  N          0.60571850       0.58739100       0.70153150
    15  N          0.60571850       0.91260900       0.20153150
    16  N          0.39428150       0.41260900       0.29846850
    17  N          0.21058160      -0.00388100       0.61262850
    18  N          0.78941840       0.49611900       0.88737150
    19  N          0.78941840       0.00388100       0.38737150
    20  N          0.21058160       0.50388100       0.11262850
    21  C          0.71583180       0.16340110       0.96483820
    22  C          0.28416820       0.66340110       0.53516180
    23  C          0.28416820       0.83659890       0.03516180
    24  C          0.71583180       0.33659890       0.46483820
    25  C          0.71107180       0.21911110       0.06962180
    26  C          0.28892820       0.71911110       0.43037820
    27  C          0.28892820       0.78088890       0.93037820
    28  C          0.71107180       0.28088890       0.56962180
    29  C          0.48458180       0.19517100       0.11415170
    30  C          0.51541820       0.69517100       0.38584830
    31  C          0.51541820       0.80482900       0.88584830
    32  C          0.48458180       0.30482900       0.61415170
    33  C          0.44100170       0.13255110       0.03005170
    34  C          0.55899830       0.63255110       0.46994830
    35  C          0.55899830       0.86744890       0.96994830
    36  C          0.44100170       0.36744890       0.53005170
    37  C          0.48642170       0.12223100       0.89694830
    38  C          0.51357830       0.62223100       0.60305170
    39  C          0.51357830       0.87776900       0.10305170
    40  C          0.48642170       0.37776900       0.39694830
    41  C          0.34527180       0.08211110       0.08539180
    42  C          0.65472820       0.58211110       0.41460820
    43  C          0.65472820       0.91788890       0.91460820
    44  C          0.34527180       0.41788890       0.58539180
    45  C          0.31347180       0.10787120       0.20525180
    46  C          0.68652820       0.60787120       0.29474820
    47  C          0.68652820       0.89212880       0.79474820
    48  C          0.31347180       0.39212880       0.70525180
    49  C          0.21592000       0.07292150       0.29092000
    50  C          0.78408000       0.57292150       0.20908000
    51  C          0.78408000       0.92707850       0.70908000
    52  C          0.21592000       0.42707850       0.79092000
    53  C          0.83062000       0.24460130       0.14682000
    54  C          0.16938000       0.74460130       0.35318000
    55  C          0.16938000       0.75539870       0.85318000
    56  C          0.83062000       0.25539870       0.64682000
    57  C          0.95582000       0.21593160       0.12362000
    58  C          0.04418000       0.71593160       0.37638000
    59  C          0.04418000       0.78406840       0.87638000
    60  C          0.95582000       0.28406840       0.62362000
    61  C          0.96232000       0.15930160       0.02422000
    62  C          0.03768000       0.65930160       0.47578000
    63  C          0.03768000       0.84069840       0.97578000
    64  C          0.96232000       0.34069840       0.52422000
    65  C          0.84382000       0.13368130       0.94588000
    66  C          0.15618000       0.63368130       0.55412000
    67  C          0.15618000       0.86631870       0.05412000
    68  C          0.84382000       0.36631870       0.44588000
    69  C          0.24802180       0.10372120       0.77987810
    70  C          0.75197820       0.60372120       0.72012190
    71  C          0.75197820       0.89627880       0.22012190
    72  C          0.24802180       0.39627880       0.27987810
    73  C          0.16912000       0.02767130       0.73690810
    74  C          0.83088000       0.52767130       0.76309190
    75  C          0.83088000       0.97232870       0.26309190
    76  C          0.16912000       0.47232870       0.23690810
    77  C          0.35662000       0.98028880       0.63358000
    78  C          0.64338000       0.48028880       0.86642000
    79  C          0.64338000       0.01971120       0.36642000
    80  C          0.35662000       0.51971120       0.13358000
    81  C          0.43736190       0.05594130       0.67515820
    82  C          0.56263810       0.55594130       0.82484180
    83  C          0.56263810       0.94405870       0.32484180
    84  C          0.43736190       0.44405870       0.17515820
    85  C          0.13543000       0.92290860       0.56768000
    86  C          0.86457000       0.42290860       0.93232000
    87  C          0.86457000       0.07709140       0.43232000
    88  C          0.13543000       0.57709140       0.06768000
    89  H          0.59620000       0.28771300       0.15920000
    90  H          0.40380000       0.78771300       0.34080000
    91  H          0.40380000       0.71228700       0.84080000
    92  H          0.59620000       0.21228700       0.65920000
    93  H          0.30820000       0.03560000       0.04250000
    94  H          0.69180000       0.53560000       0.45750000
    95  H          0.69180000       0.96440000       0.95750000
    96  H          0.30820000       0.46440000       0.54250000
    97  H          0.13970000       0.10880000       0.29090000
    98  H          0.86030000       0.60880000       0.20910000
    99  H          0.86030000       0.89120000       0.70910000
   100  H          0.13970000       0.39120000       0.79090000
   101  H          0.26090000       0.06620000       0.38170000
   102  H          0.73910000       0.56620000       0.11830000
   103  H          0.73910000       0.93380000       0.61830000
   104  H          0.26090000       0.43380000       0.88170000
   105  H          0.18430000       0.02130000       0.25520000
   106  H          0.81570000       0.52130000       0.24480000
   107  H          0.81570000       0.97870000       0.74480000
   108  H          0.18430000       0.47870000       0.75520000
   109  H          0.82630000       0.28190000       0.21580000
   110  H          0.17370000       0.78190000       0.28420000
   111  H          0.17370000       0.71810000       0.78420000
   112  H          0.82630000       0.21810000       0.71580000
   113  H          0.03510000       0.23470000       0.17470000
   114  H          0.96490000       0.73470000       0.32530000
   115  H          0.96490000       0.76530000       0.82530000
   116  H          0.03510000       0.26530000       0.67470000
   117  H          0.04600000       0.13830000       0.00950000
   118  H          0.95400000       0.63830000       0.49050000
   119  H          0.95400000       0.86170000      -0.00950000
   120  H          0.04600000       0.36170000       0.50950000
   121  H          0.84960000       0.09550000       0.87860000
   122  H          0.15040000       0.59550000       0.62140000
   123  H          0.15040000       0.90450000       0.12140000
   124  H          0.84960000       0.40450000       0.37860000
   125  H          0.22670000       0.14520000       0.71160000
   126  H          0.77330000       0.64520000       0.78840000
   127  H          0.77330000       0.85480000       0.28840000
   128  H          0.22670000       0.35480000       0.21160000
   129  H          0.22160000       0.12350000       0.86380000
   130  H          0.77840000       0.62350000       0.63620000
   131  H          0.77840000       0.87650000       0.13620000
   132  H          0.22160000       0.37650000       0.36380000
   133  H          0.18570000       0.98730000       0.80770000
   134  H          0.81430000       0.48730000       0.69230000
   135  H          0.81430000       0.01270000       0.19230000
   136  H          0.18570000       0.51270000       0.30770000
   137  H          0.07230000       0.03950000       0.72250000
   138  H          0.92770000       0.53950000       0.77750000
   139  H          0.92770000       0.96050000       0.27750000
   140  H          0.07230000       0.46050000       0.22250000
   141  H          0.38380000       0.95940000       0.55070000
   142  H          0.61620000       0.45940000       0.94930000
   143  H          0.61620000       0.04060000       0.44930000
   144  H          0.38380000       0.54060000       0.05070000
   145  H          0.37680000       0.93940000       0.70300000
   146  H          0.62320000       0.43940000       0.79700000
   147  H          0.62320000       0.06060000       0.29700000
   148  H          0.37680000       0.56060000       0.20300000
   149  H          0.53390000       0.04350000       0.69060000
   150  H          0.46610000       0.54350000       0.80940000
   151  H          0.46610000       0.95650000       0.30940000
   152  H          0.53390000       0.45650000       0.19060000
   153  H          0.42180000       0.09610000       0.60400000
   154  H          0.57820000       0.59610000       0.89600000
   155  H          0.57820000       0.90390000       0.39600000
   156  H          0.42180000       0.40390000       0.10400000
   157  H          0.16170000       0.90520000       0.48370000
   158  H          0.83830000       0.40520000       0.01630000
   159  H          0.83830000       0.09480000       0.51630000
   160  H          0.16170000       0.59480000       0.98370000
   161  H          0.03950000       0.93410000       0.55560000
   162  H          0.96050000       0.43410000       0.94440000
   163  H          0.96050000       0.06590000       0.44440000
   164  H          0.03950000       0.56590000       0.05560000
   165  H          0.15560000       0.88130000       0.63440000
   166  H          0.84440000       0.38130000       0.86560000
   167  H          0.84440000       0.11870000       0.36560000
   168  H          0.15560000       0.61870000       0.13440000
