data_URAQEK
_symmetry_space_group_name_H-M    'P1'
_symmetry_Int_Tables_number       1
loop_
_symmetry_equiv_pos_site_id
_symmetry_equiv_pos_as_xyz
1 x,y,z
_cell_length_a                   8.7365
_cell_length_b                   7.8095
_cell_length_c                   16.1221
_cell_angle_alpha                90.0
_cell_angle_beta                 103.572
_cell_angle_gamma                90.0
loop_
_atom_site_label
_atom_site_type_symbol
_atom_site_fract_x
_atom_site_fract_y
_atom_site_fract_z
     1  O          0.20212000       0.63943000       0.57469130
     2  O          0.79788000       0.13943000       0.92530870
     3  O          0.79788000       0.36057000       0.42530870
     4  O          0.20212000       0.86057000       0.07469130
     5  H          0.26630000       0.62440000       0.54330000
     6  H          0.73370000       0.12440000       0.95670000
     7  H          0.73370000       0.37560000       0.45670000
     8  H          0.26630000       0.87560000       0.04330000
     9  C          0.49833000       0.45994000       0.60317180
    10  C          0.50167000       0.95994000       0.89682820
    11  C          0.50167000       0.54006000       0.39682820
    12  C          0.49833000       0.04006000       0.10317180
    13  H          0.59140000       0.39720000       0.61650000
    14  H          0.40860000       0.89720000       0.88350000
    15  H          0.40860000       0.60280000       0.38350000
    16  H          0.59140000       0.10280000       0.11650000
    17  C          0.41293000       0.48583000       0.66828160
    18  C          0.58707000      -0.01417000       0.83171840
    19  C          0.58707000       0.51417000       0.33171840
    20  C          0.41293000       0.01417000       0.16828160
    21  C          0.46983000       0.42354000       0.75059180
    22  C          0.53017000       0.92354000       0.74940820
    23  C          0.53017000       0.57646000       0.24940820
    24  C          0.46983000       0.07646000       0.25059180
    25  H          0.56380000       0.36240000       0.76250000
    26  H          0.43620000       0.86240000       0.73750000
    27  H          0.43620000       0.63760000       0.23750000
    28  H          0.56380000       0.13760000       0.26250000
    29  C          0.39373000       0.44804000       0.81492180
    30  C          0.60627000       0.94804000       0.68507820
    31  C          0.60627000       0.55196000       0.18507820
    32  C          0.39373000       0.05196000       0.31492180
    33  H          0.43600000       0.40310000       0.86880000
    34  H          0.56400000       0.90310000       0.63120000
    35  H          0.56400000       0.59690000       0.13120000
    36  H          0.43600000       0.09690000       0.36880000
    37  C          0.25033000       0.54184000       0.79966180
    38  C          0.74967000       0.04184000       0.70033820
    39  C          0.74967000       0.45816000       0.20033820
    40  C          0.25033000       0.95816000       0.29966180
    41  C          0.18983000       0.59984000       0.71712170
    42  C          0.81017000       0.09984000       0.78287830
    43  C          0.81017000       0.40016000       0.28287830
    44  C          0.18983000       0.90016000       0.21712170
    45  H          0.09390000       0.65730000       0.70480000
    46  H          0.90610000       0.15730000       0.79520000
    47  H          0.90610000       0.34270000       0.29520000
    48  H          0.09390000       0.84270000       0.20480000
    49  C          0.26783000       0.57454000       0.65257170
    50  C          0.73217000       0.07454000       0.84742830
    51  C          0.73217000       0.42546000       0.34742830
    52  C          0.26783000       0.92546000       0.15257170
    53  C          0.23435000       0.50306000       0.95102000
    54  C          0.76565000       0.00306000       0.54898000
    55  C          0.76565000       0.49694000       0.04898000
    56  C          0.23435000      -0.00306000       0.45102000
    57  H          0.34810000       0.51280000       0.96790000
    58  H          0.65190000       0.01280000       0.53210000
    59  H          0.65190000       0.48720000       0.03210000
    60  H          0.34810000      -0.01280000       0.46790000
    61  H          0.19060000       0.56720000      -0.00850000
    62  H          0.80940000       0.06720000       0.50850000
    63  H          0.80940000       0.43280000       0.00850000
    64  H          0.19060000       0.93280000       0.49150000
    65  C          0.18935000       0.32266000       0.95303000
    66  C          0.81065000       0.82266000       0.54697000
    67  C          0.81065000       0.67734000       0.04697000
    68  C          0.18935000       0.17734000       0.45303000
    69  H          0.07700000       0.31420000       0.94410000
    70  H          0.92300000       0.81420000       0.55590000
    71  H          0.92300000       0.68580000       0.05590000
    72  H          0.07700000       0.18580000       0.44410000
    73  H          0.23870000       0.27420000       0.00740000
    74  H          0.76130000       0.77420000       0.49260000
    75  H          0.76130000       0.72580000      -0.00740000
    76  H          0.23870000       0.22580000       0.50740000
    77  H          0.22260000       0.26140000       0.90860000
    78  H          0.77740000       0.76140000       0.59140000
    79  H          0.77740000       0.73860000       0.09140000
    80  H          0.22260000       0.23860000       0.40860000
    81  C          0.03574000       0.68575000       0.85112000
    82  C          0.96426000       0.18575000       0.64888000
    83  C          0.96426000       0.31425000       0.14888000
    84  C          0.03574000       0.81425000       0.35112000
    85  H          0.04610000       0.77760000       0.81230000
    86  H          0.95390000       0.27760000       0.68770000
    87  H          0.95390000       0.22240000       0.18770000
    88  H          0.04610000       0.72240000       0.31230000
    89  H          0.03120000       0.73730000       0.90520000
    90  H          0.96880000       0.23730000       0.59480000
    91  H          0.96880000       0.26270000       0.09480000
    92  H          0.03120000       0.76270000       0.40520000
    93  C          0.88426000       0.59395000       0.81612000
    94  C          0.11574000       0.09395000       0.68388000
    95  C          0.11574000       0.40605000       0.18388000
    96  C          0.88426000       0.90605000       0.31612000
    97  H          0.88560000       0.54600000       0.76150000
    98  H          0.11440000       0.04600000       0.73850000
    99  H          0.11440000       0.45400000       0.23850000
   100  H          0.88560000       0.95400000       0.26150000
   101  H          0.79820000       0.67290000       0.81000000
   102  H          0.20180000       0.17290000       0.69000000
   103  H          0.20180000       0.32710000       0.19000000
   104  H          0.79820000       0.82710000       0.31000000
   105  H          0.87170000       0.50380000       0.85450000
   106  H          0.12830000       0.00380000       0.64550000
   107  H          0.12830000       0.49620000       0.14550000
   108  H          0.87170000      -0.00380000       0.35450000
   109  N          0.45113000       0.51983000       0.52728150
   110  N          0.54887000       0.01983000       0.97271850
   111  N          0.54887000       0.48017000       0.47271850
   112  N          0.45113000       0.98017000       0.02728150
   113  N          0.17663000       0.57654000       0.86429150
   114  N          0.82337000       0.07654000       0.63570850
   115  N          0.82337000       0.42346000       0.13570850
   116  N          0.17663000       0.92346000       0.36429150
