data_URAQEK01
_symmetry_space_group_name_H-M    'P1'
_symmetry_Int_Tables_number       1
loop_
_symmetry_equiv_pos_site_id
_symmetry_equiv_pos_as_xyz
1 x,y,z
_cell_length_a                   12.00235
_cell_length_b                   6.53433
_cell_length_c                   13.33736
_cell_angle_alpha                90.0
_cell_angle_beta                 95.9052
_cell_angle_gamma                90.0
loop_
_atom_site_label
_atom_site_type_symbol
_atom_site_fract_x
_atom_site_fract_y
_atom_site_fract_z
     1  O          0.97790140       0.71128000       0.29587120
     2  O          0.52209860       0.21128000       0.20412880
     3  O          0.02209860       0.28872000       0.70412880
     4  O          0.47790140       0.78872000       0.79587120
     5  N          0.77179160       0.91647000       0.98841880
     6  N          0.72820840       0.41647000       0.51158120
     7  N          0.22820840       0.08353000       0.01158120
     8  N          0.27179160       0.58353000       0.48841880
     9  N         -0.01273870       0.96387000       0.45094110
    10  N          0.51273870       0.46387000       0.04905890
    11  N          0.01273870       0.03613000       0.54905890
    12  N          0.48726130       0.53613000       0.95094110
    13  C          0.92097140       0.86087000       0.24259130
    14  C          0.57902860       0.36087000       0.25740870
    15  C          0.07902860       0.13913000       0.75740870
    16  C          0.42097140       0.63913000       0.74259130
    17  C          0.80263160       0.15903000       0.12714140
    18  C          0.69736840       0.65903000       0.37285860
    19  C          0.19736840       0.84097000       0.87285860
    20  C          0.30263160       0.34097000       0.62714140
    21  C          0.84305150       0.19913000       0.22496140
    22  C          0.65694850       0.69913000       0.27503860
    23  C          0.15694850       0.80087000       0.77503860
    24  C          0.34305150       0.30087000       0.72496140
    25  C          0.88203160       0.82037000       0.14375130
    26  C          0.61796840       0.32037000       0.35624870
    27  C          0.11796840       0.17963000       0.85624870
    28  C          0.38203160       0.67963000       0.64375130
    29  C          0.90182130       0.05283000       0.28672130
    30  C          0.59817870       0.55283000       0.21327870
    31  C          0.09817870       0.94717000       0.71327870
    32  C          0.40182130       0.44717000       0.78672130
    33  C          0.81863150       0.96437000       0.08384130
    34  C          0.68136850       0.46437000       0.41615870
    35  C          0.18136850       0.03563000       0.91615870
    36  C          0.31863150       0.53563000       0.58384130
    37  C          0.93696150       0.09793000       0.39058140
    38  C          0.56303850       0.59793000       0.10941860
    39  C          0.06303850       0.90207000       0.60941860
    40  C          0.43696150       0.40207000       0.89058140
    41  C          0.79703190       0.72397000       0.94135840
    42  C          0.70296810       0.22397000       0.55864160
    43  C          0.20296810       0.27603000       0.05864160
    44  C          0.29703190       0.77603000       0.44135840
    45  C          0.91192000       0.71075000       0.90468000
    46  C          0.58808000       0.21075000       0.59532000
    47  C          0.08808000       0.28925000       0.09532000
    48  C          0.41192000       0.78925000       0.40468000
    49  C          0.70022000       0.06204000       0.92686810
    50  C          0.79978000       0.56204000       0.57313190
    51  C          0.29978000       0.93796000       0.07313190
    52  C          0.20022000       0.43796000       0.42686810
    53  C          0.76684000       0.19355000       0.86557000
    54  C          0.73316000       0.69355000       0.63443000
    55  C          0.23316000       0.80645000       0.13443000
    56  C          0.26684000       0.30645000       0.36557000
    57  H          0.71790000       0.28650000       0.82650000
    58  H          0.78210000       0.78650000       0.67350000
    59  H          0.28210000       0.71350000       0.17350000
    60  H          0.21790000       0.21350000       0.32650000
    61  H          0.80550000       0.10980000       0.82120000
    62  H          0.69450000       0.60980000       0.67880000
    63  H          0.19450000       0.89020000       0.17880000
    64  H          0.30550000       0.39020000       0.32120000
    65  H          0.82030000       0.26980000       0.90920000
    66  H          0.67970000       0.76980000       0.59080000
    67  H          0.17970000       0.73020000       0.09080000
    68  H          0.32030000       0.23020000       0.40920000
    69  H          0.83271800       0.34240000       0.25421600
    70  H          0.66728200       0.84240000       0.24578400
    71  H          0.16728200       0.65760000       0.74578400
    72  H          0.33271800       0.15760000       0.75421600
    73  H          0.89751900       0.68260000       0.12111700
    74  H          0.60248100       0.18260000       0.37888300
    75  H          0.10248100       0.31740000       0.87888300
    76  H          0.39751900       0.81740000       0.62111700
    77  H          0.76120000       0.26140000       0.08820000
    78  H          0.73880000       0.76140000       0.41180000
    79  H          0.23880000       0.73860000       0.91180000
    80  H          0.26120000       0.23860000       0.58820000
    81  H          0.91230000       0.81850000       0.85670000
    82  H          0.58770000       0.31850000       0.64330000
    83  H          0.08770000       0.18150000       0.14330000
    84  H          0.41230000       0.68150000       0.35670000
    85  H          0.78961900       0.61560000      -0.00871800
    86  H          0.71038100       0.11560000       0.50871800
    87  H          0.21038100       0.38440000       0.00871800
    88  H          0.28961900       0.88440000       0.49128200
    89  H          0.91781900       0.23840000       0.41451700
    90  H          0.58218100       0.73840000       0.08548300
    91  H          0.08218100       0.76160000       0.58548300
    92  H          0.41781900       0.26160000       0.91451700
    93  H          0.74120000       0.70560000       0.88980000
    94  H          0.75880000       0.20560000       0.61020000
    95  H          0.25880000       0.29440000       0.11020000
    96  H          0.24120000       0.79440000       0.38980000
    97  H          0.97930000       0.72550000       0.96870000
    98  H          0.52070000       0.22550000       0.53130000
    99  H          0.02070000       0.27450000       0.03130000
   100  H          0.47930000       0.77450000       0.46870000
   101  H          0.64830000       0.17250000       0.96480000
   102  H          0.85170000       0.67250000       0.53520000
   103  H          0.35170000       0.82750000       0.03520000
   104  H          0.14830000       0.32750000       0.46480000
   105  H          0.64230000      -0.01960000       0.87170000
   106  H          0.85770000       0.48040000       0.62830000
   107  H          0.35770000       0.01960000       0.12830000
   108  H          0.14230000       0.51960000       0.37170000
   109  H          0.91920000       0.58050000       0.86980000
   110  H          0.58080000       0.08050000       0.63020000
   111  H          0.08080000       0.41950000       0.13020000
   112  H          0.41920000       0.91950000       0.36980000
   113  H         -0.00170000       0.75950000       0.35230000
   114  H          0.50170000       0.25950000       0.14770000
   115  H          0.00170000       0.24050000       0.64770000
   116  H          0.49830000       0.74050000       0.85230000
