data_URAQEK03
_symmetry_space_group_name_H-M    'P1'
_symmetry_Int_Tables_number       1
loop_
_symmetry_equiv_pos_site_id
_symmetry_equiv_pos_as_xyz
1 x,y,z
_cell_length_a                   6.967619
_cell_length_b                   8.3453
_cell_length_c                   9.7654
_cell_angle_alpha                79.753
_cell_angle_beta                 70.263
_cell_angle_gamma                83.193
loop_
_atom_site_label
_atom_site_type_symbol
_atom_site_fract_x
_atom_site_fract_y
_atom_site_fract_z
     1  O          0.89302000       0.24085190       0.38092000
     2  O          0.10698000       0.75914810       0.61908000
     3  H          0.82290000       0.31790000       0.41820000
     4  H          0.17710000       0.68210000       0.58180000
     5  N          0.56163000       0.43354190       0.47029180
     6  N          0.43837000       0.56645810       0.52970820
     7  N          0.85643000       0.78718000       0.15832000
     8  N          0.14357000       0.21282000       0.84168000
     9  C          0.46613000       0.33642000       0.43072000
    10  C          0.53387000       0.66358000       0.56928000
    11  H          0.32690000       0.35790000       0.44640000
    12  H          0.67310000       0.64210000       0.55360000
    13  C          0.56703000       0.19642000       0.36322000
    14  C          0.43297000       0.80358000       0.63678000
    15  C          0.77633000       0.15272000       0.33882000
    16  C          0.22367000       0.84728000       0.66118000
    17  C          0.86973000       0.01832000       0.27302000
    18  C          0.13027000       0.98168000       0.72698000
    19  H          0.00790000      -0.00760000       0.25890000
    20  H         -0.00790000       0.00760000       0.74110000
    21  C          0.76103000       0.91938000       0.22672000
    22  C          0.23897000       0.08062000       0.77328000
    23  C          0.55053000       0.96128000       0.25272000
    24  C          0.44947000       0.03872000       0.74728000
    25  H          0.47340000       0.89790000       0.22440000
    26  H          0.52660000       0.10210000       0.77560000
    27  C          0.45943000       0.09492000       0.31932000
    28  C          0.54057000       0.90508000       0.68068000
    29  H          0.32030000       0.11910000       0.33610000
    30  H          0.67970000       0.88090000       0.66390000
    31  C          0.07613000       0.74857000       0.12273000
    32  C          0.92387000       0.25143000       0.87727000
    33  H          0.14540000       0.84940000       0.09540000
    34  H          0.85460000       0.15060000       0.90460000
    35  H          0.12390000       0.69020000       0.03870000
    36  H          0.87610000       0.30980000       0.96130000
    37  C          0.13144000       0.64597000       0.25023000
    38  C          0.86856000       0.35403000       0.74977000
    39  H          0.27700000       0.62530000       0.22250000
    40  H          0.72300000       0.37470000       0.77750000
    41  H          0.06740000       0.54420000       0.27530000
    42  H          0.93260000       0.45580000       0.72470000
    43  H          0.08480000       0.70340000       0.33360000
    44  H          0.91520000       0.29660000       0.66640000
    45  C          0.73994000       0.66757000       0.13142000
    46  C          0.26006000       0.33243000       0.86858000
    47  H          0.60850000       0.66020000       0.20860000
    48  H          0.39150000       0.33980000       0.79140000
    49  H          0.81270000       0.56130000       0.13600000
    50  H          0.18730000       0.43870000       0.86400000
    51  C          0.70554000       0.71047000       0.98398000
    52  C          0.29446000       0.28953000       0.01602000
    53  H          0.62920000       0.62850000       0.97200000
    54  H          0.37080000       0.37150000       0.02800000
    55  H          0.83490000       0.71590000       0.90690000
    56  H          0.16510000       0.28410000       0.09310000
    57  H          0.63040000       0.81440000       0.97960000
    58  H          0.36960000       0.18560000       0.02040000
