data_UREAXX26
_symmetry_space_group_name_H-M    'P1'
_symmetry_Int_Tables_number       1
loop_
_symmetry_equiv_pos_site_id
_symmetry_equiv_pos_as_xyz
1 x,y,z
_cell_length_a                   3.4143
_cell_length_b                   7.3608
_cell_length_c                   4.6061
_cell_angle_alpha                90.0
_cell_angle_beta                 90.0
_cell_angle_gamma                90.0
loop_
_atom_site_label
_atom_site_type_symbol
_atom_site_fract_x
_atom_site_fract_y
_atom_site_fract_z
     1  C         -0.00000000       0.50000000       0.87040000
     2  C          0.50000000      -0.00000000       0.12960000
     3  O         -0.00000000       0.50000000       0.13630000
     4  O          0.50000000       0.00000000       0.86370000
     5  N          0.12709000       0.64294000       0.71811900
     6  N          0.87291000       0.35706000       0.71811900
     7  N          0.37291000       0.14294000       0.28188100
     8  N          0.62709000       0.85706000       0.28188100
     9  H          0.21150000       0.73790000       0.80700000
    10  H          0.78850000       0.26210000       0.80700000
    11  H          0.28850000       0.23790000       0.19300000
    12  H          0.71150000       0.76210000       0.19300000
    13  H          0.12440000       0.63990000       0.53150000
    14  H          0.87560000       0.36010000       0.53150000
    15  H          0.37560000       0.13990000       0.46850000
    16  H          0.62440000       0.86010000       0.46850000
