data_UREAXX27
_symmetry_space_group_name_H-M    'P1'
_symmetry_Int_Tables_number       1
loop_
_symmetry_equiv_pos_site_id
_symmetry_equiv_pos_as_xyz
1 x,y,z
_cell_length_a                   3.53907
_cell_length_b                   8.234016
_cell_length_c                   8.790018
_cell_angle_alpha                90.0
_cell_angle_beta                 90.0
_cell_angle_gamma                90.0
loop_
_atom_site_label
_atom_site_type_symbol
_atom_site_fract_x
_atom_site_fract_y
_atom_site_fract_z
     1  N          0.09677000       0.63227000       0.11635000
     2  N          0.40323000       0.36773000       0.61635000
     3  N          0.90323000       0.13227000       0.38365000
     4  N          0.59677000       0.86773000       0.88365000
     5  H         -0.00420000       0.70560000       0.05980000
     6  H          0.50420000       0.29440000       0.55980000
     7  H          0.00420000       0.20560000       0.44020000
     8  H          0.49580000       0.79440000       0.94020000
     9  H          0.16000000       0.65470000       0.20840000
    10  H          0.34000000       0.34530000       0.70840000
    11  H          0.84000000       0.15470000       0.29160000
    12  H          0.66000000       0.84530000       0.79160000
    13  C          0.15579000       0.48166000       0.06057000
    14  C          0.34421000       0.51834000       0.56057000
    15  C          0.84421000       0.98166000       0.43943000
    16  C          0.65579000       0.01834000       0.93943000
    17  O          0.06436000       0.44694000       0.92576000
    18  O          0.43564000       0.55306000       0.42576000
    19  O          0.93564000       0.94694000       0.57424000
    20  O          0.56436000       0.05306000       0.07424000
    21  N          0.32158000       0.37456000       0.15255000
    22  N          0.17842000       0.62544000       0.65255000
    23  N          0.67842000       0.87456000       0.34745000
    24  N          0.82158000       0.12544000       0.84745000
    25  H          0.36950000       0.27800000       0.12050000
    26  H          0.13050000       0.72200000       0.62050000
    27  H          0.63050000       0.77800000       0.37950000
    28  H          0.86950000       0.22200000       0.87950000
    29  H          0.38050000       0.40190000       0.24390000
    30  H          0.11950000       0.59810000       0.74390000
    31  H          0.61950000       0.90190000       0.25610000
    32  H          0.88050000       0.09810000       0.75610000
