data_UREAXX
_symmetry_space_group_name_H-M    'P1'
_symmetry_Int_Tables_number       1
loop_
_symmetry_equiv_pos_site_id
_symmetry_equiv_pos_as_xyz
1 x,y,z
_cell_length_a                   5.662
_cell_length_b                   5.662
_cell_length_c                   4.716
_cell_angle_alpha                90.0
_cell_angle_beta                 90.0
_cell_angle_gamma                90.0
loop_
_atom_site_label
_atom_site_type_symbol
_atom_site_fract_x
_atom_site_fract_y
_atom_site_fract_z
     1  C          0.00000000       0.50000000       0.33000000
     2  C          0.50000000      -0.00000000       0.67000000
     3  H          0.24300000       0.74300000       0.28100000
     4  H          0.25700000       0.24300000       0.71900000
     5  H          0.75700000       0.25700000       0.28100000
     6  H          0.74300000       0.75700000       0.71900000
     7  H          0.14200000       0.64200000       0.02800000
     8  H          0.35800000       0.14200000      -0.02800000
     9  H          0.85800000       0.35800000       0.02800000
    10  H          0.64200000       0.85800000      -0.02800000
    11  N          0.14330000       0.64330000       0.18470000
    12  N          0.35670000       0.14330000       0.81530000
    13  N          0.85670000       0.35670000       0.18470000
    14  N          0.64330000       0.85670000       0.81530000
    15  O          0.00000000       0.50000000       0.59800000
    16  O          0.50000000       0.00000000       0.40200000
