data_UTIXAX01
_symmetry_space_group_name_H-M    'P1'
_symmetry_Int_Tables_number       1
loop_
_symmetry_equiv_pos_site_id
_symmetry_equiv_pos_as_xyz
1 x,y,z
_cell_length_a                   3.880811
_cell_length_b                   10.6166
_cell_length_c                   11.7184
_cell_angle_alpha                90.0
_cell_angle_beta                 91.242
_cell_angle_gamma                90.0
loop_
_atom_site_label
_atom_site_type_symbol
_atom_site_fract_x
_atom_site_fract_y
_atom_site_fract_z
     1  C          0.85131700       0.86279000       0.40526000
     2  C          0.14868300       0.36279000       0.09474000
     3  C          0.14868300       0.13721000       0.59474000
     4  C          0.85131700       0.63721000       0.90526000
     5  C          0.74320000       0.75201100       0.33707000
     6  C          0.25680000       0.25201100       0.16293000
     7  C          0.25680000       0.24798900       0.66293000
     8  C          0.74320000       0.74798900       0.83707000
     9  C          0.79730000       0.62731100       0.38688000
    10  C          0.20270000       0.12731100       0.11312000
    11  C          0.20270000       0.37268900       0.61312000
    12  C          0.79730000       0.87268900       0.88688000
    13  C          0.60481700       0.77451100       0.23176000
    14  C          0.39518300       0.27451100       0.26824000
    15  C          0.39518300       0.22548900       0.76824000
    16  C          0.60481700       0.72548900       0.73176000
    17  O          0.79281400       0.97107000       0.36994000
    18  O          0.20718600       0.47107000       0.13006000
    19  O          0.20718600       0.02893000       0.63006000
    20  O          0.79281400       0.52893000       0.86994000
    21  O          0.00721200       0.83996000       0.49964000
    22  O         -0.00721200       0.33996000       0.00036000
    23  O         -0.00721200       0.16004000       0.50036000
    24  O          0.00721200       0.66004000      -0.00036000
    25  H          0.72600000       0.56650000       0.32830000
    26  H          0.27400000       0.06650000       0.17170000
    27  H          0.27400000       0.43350000       0.67170000
    28  H          0.72600000       0.93350000       0.82830000
    29  H          0.02950000       0.61290000       0.40980000
    30  H         -0.02950000       0.11290000       0.09020000
    31  H         -0.02950000       0.38710000       0.59020000
    32  H          0.02950000       0.88710000       0.90980000
    33  H          0.64640000       0.61460000       0.45330000
    34  H          0.35360000       0.11460000       0.04670000
    35  H          0.35360000       0.38540000       0.54670000
    36  H          0.64640000       0.88540000       0.95330000
    37  H          0.58210000       0.85860000       0.20980000
    38  H          0.41790000       0.35860000       0.29020000
    39  H          0.41790000       0.14140000       0.79020000
    40  H          0.58210000       0.64140000       0.70980000
    41  H          0.53350000       0.70730000       0.18920000
    42  H          0.46650000       0.20730000       0.31080000
    43  H          0.46650000       0.29270000       0.81080000
    44  H          0.53350000       0.79270000       0.68920000
    45  H          0.07530000       0.90060000       0.54150000
    46  H          0.92470000       0.40060000       0.95850000
    47  H          0.92470000       0.09940000       0.45850000
    48  H          0.07530000       0.59940000       0.04150000
