data_UTIXAX02
_symmetry_space_group_name_H-M    'P1'
_symmetry_Int_Tables_number       1
loop_
_symmetry_equiv_pos_site_id
_symmetry_equiv_pos_as_xyz
1 x,y,z
_cell_length_a                   3.764313
_cell_length_b                   13.5016
_cell_length_c                   8.3085
_cell_angle_alpha                90.0
_cell_angle_beta                 101.223
_cell_angle_gamma                90.0
loop_
_atom_site_label
_atom_site_type_symbol
_atom_site_fract_x
_atom_site_fract_y
_atom_site_fract_z
     1  O         -0.04089000       0.38302000       0.94705000
     2  O          0.04089000       0.88302000       0.55295000
     3  O          0.04089000       0.61698000       0.05295000
     4  O         -0.04089000       0.11698000       0.44705000
     5  C          0.73991500       0.41735000       0.83068000
     6  C          0.26008500       0.91735000       0.66932000
     7  C          0.26008500       0.58265000       0.16932000
     8  C          0.73991500       0.08265000       0.33068000
     9  O          0.67241100       0.51183000       0.81215000
    10  O          0.32758900       0.01183000       0.68785000
    11  O          0.32758900       0.48817000       0.18785000
    12  O          0.67241100       0.98817000       0.31215000
    13  C          0.53721400       0.35314000       0.69988000
    14  C          0.46278600       0.85314000       0.80012000
    15  C          0.46278600       0.64686000       0.30012000
    16  C          0.53721400       0.14686000       0.19988000
    17  C          0.30241400       0.39274000       0.57788000
    18  C          0.69758600       0.89274000       0.92212000
    19  C          0.69758600       0.60726000       0.42212000
    20  C          0.30241400       0.10726000       0.07788000
    21  C          0.61481400       0.24644000       0.71908000
    22  C          0.38518600       0.74644000       0.78092000
    23  C          0.38518600       0.75356000       0.28092000
    24  C          0.61481400       0.25356000       0.21908000
    25  H          0.47690000       0.20950000       0.62960000
    26  H          0.52310000       0.70950000       0.87040000
    27  H          0.52310000       0.79050000       0.37040000
    28  H          0.47690000       0.29050000       0.12960000
    29  H          0.54780000       0.22270000       0.81740000
    30  H          0.45220000       0.72270000       0.68260000
    31  H          0.45220000       0.77730000       0.18260000
    32  H          0.54780000       0.27730000       0.31740000
    33  H          0.86860000       0.23270000       0.72500000
    34  H          0.13140000       0.73270000       0.77500000
    35  H          0.13140000       0.76730000       0.27500000
    36  H          0.86860000       0.26730000       0.22500000
    37  H          0.19920000       0.35490000       0.48380000
    38  H          0.80080000       0.85490000       0.01620000
    39  H          0.80080000       0.64510000       0.51620000
    40  H          0.19920000       0.14510000      -0.01620000
    41  H          0.23890000       0.45970000       0.58570000
    42  H          0.76110000       0.95970000       0.91430000
    43  H          0.76110000       0.54030000       0.41430000
    44  H          0.23890000       0.04030000       0.08570000
    45  H          0.78750000       0.55270000       0.88110000
    46  H          0.21250000       0.05270000       0.61890000
    47  H          0.21250000       0.44730000       0.11890000
    48  H          0.78750000       0.94730000       0.38110000
