data_UTIXAX03
_symmetry_space_group_name_H-M    'P1'
_symmetry_Int_Tables_number       1
loop_
_symmetry_equiv_pos_site_id
_symmetry_equiv_pos_as_xyz
1 x,y,z
_cell_length_a                   3.61407
_cell_length_b                   16.4203
_cell_length_c                   6.7733
_cell_angle_alpha                90.0
_cell_angle_beta                 90.363
_cell_angle_gamma                90.0
loop_
_atom_site_label
_atom_site_type_symbol
_atom_site_fract_x
_atom_site_fract_y
_atom_site_fract_z
     1  C          0.22931700       0.58134000       0.16920000
     2  C          0.27068300       0.08134000       0.33080000
     3  C          0.77068300       0.41866000       0.83080000
     4  C          0.72931700       0.91866000       0.66920000
     5  C          0.39111800       0.64024000       0.30820000
     6  C          0.10888200       0.14024000       0.19180000
     7  C          0.60888200       0.35976000       0.69180000
     8  C          0.89111800       0.85976000       0.80820000
     9  C          0.39420000       0.61724000       0.51620000
    10  C          0.10580000       0.11724000      -0.01620000
    11  C          0.60580000       0.38276000       0.48380000
    12  C          0.89420000       0.88276000       0.01620000
    13  C          0.51311600       0.71273000       0.23220000
    14  C         -0.01311600       0.21273000       0.26780000
    15  C          0.48688400       0.28727000       0.76780000
    16  C          0.01311600       0.78727000       0.73220000
    17  O          0.23251200       0.59863000      -0.01820000
    18  O          0.26748800       0.09863000       0.51820000
    19  O          0.76748800       0.40137000       0.01820000
    20  O          0.73251200       0.90137000       0.48180000
    21  O          0.08731200       0.51652000       0.22891700
    22  O          0.41268800       0.01652000       0.27108300
    23  O          0.91268800       0.48348000       0.77108300
    24  O          0.58731200       0.98348000       0.72891700
    25  H          0.52140000       0.65760000       0.59370000
    26  H         -0.02140000       0.15760000       0.90630000
    27  H          0.47860000       0.34240000       0.40630000
    28  H          0.02140000       0.84240000       0.09370000
    29  H          0.14410000       0.61220000       0.56240000
    30  H          0.35590000       0.11220000       0.93760000
    31  H          0.85590000       0.38780000       0.43760000
    32  H          0.64410000       0.88780000       0.06240000
    33  H          0.51890000       0.56590000       0.52880000
    34  H         -0.01890000       0.06590000       0.97120000
    35  H          0.48110000       0.43410000       0.47120000
    36  H          0.01890000       0.93410000       0.02880000
    37  H          0.61740000       0.75120000       0.31650000
    38  H          0.88260000       0.25120000       0.18350000
    39  H          0.38260000       0.24880000       0.68350000
    40  H          0.11740000       0.74880000       0.81650000
    41  H          0.49200000       0.72290000       0.09750000
    42  H          0.00800000       0.22290000       0.40250000
    43  H          0.50800000       0.27710000       0.90250000
    44  H         -0.00800000       0.77710000       0.59750000
    45  H          0.14170000       0.56640000       0.90280000
    46  H          0.35830000       0.06640000       0.59720000
    47  H          0.85830000       0.43360000       0.09720000
    48  H          0.64170000       0.93360000       0.40280000
