data_UTIXAX
_symmetry_space_group_name_H-M    'P1'
_symmetry_Int_Tables_number       1
loop_
_symmetry_equiv_pos_site_id
_symmetry_equiv_pos_as_xyz
1 x,y,z
_cell_length_a                   3.80563
_cell_length_b                   10.48428
_cell_length_c                   11.62861
_cell_angle_alpha                90.0
_cell_angle_beta                 91.4684
_cell_angle_gamma                90.0
loop_
_atom_site_label
_atom_site_type_symbol
_atom_site_fract_x
_atom_site_fract_y
_atom_site_fract_z
     1  O          0.01902000       0.65767800       0.50132700
     2  O         -0.01902000       0.15767800      -0.00132700
     3  O         -0.01902000       0.34232200       0.49867300
     4  O          0.01902000       0.84232200       0.00132700
     5  C          0.86323000       0.64187110       0.59207100
     6  C          0.13677000       0.14187110       0.90792900
     7  C          0.13677000       0.35812890       0.40792900
     8  C          0.86323000       0.85812890       0.09207100
     9  O          0.78542000       0.52996800       0.63162700
    10  O          0.21458000       0.02996800       0.86837300
    11  O          0.21458000       0.47003200       0.36837300
    12  O          0.78542000       0.97003200       0.13162700
    13  C          0.75573000       0.75240120       0.66234110
    14  C          0.24427000       0.25240120       0.83765890
    15  C          0.24427000       0.24759880       0.33765890
    16  C          0.75573000       0.74759880       0.16234110
    17  C          0.81454000       0.87875130       0.61190140
    18  C          0.18546000       0.37875130       0.88809860
    19  C          0.18546000       0.12124870       0.38809860
    20  C          0.81454000       0.62124870       0.11190140
    21  C          0.61864000       0.73252150       0.76595120
    22  C          0.38136000       0.23252150       0.73404880
    23  C          0.38136000       0.26747850       0.23404880
    24  C          0.61864000       0.76747850       0.26595120
    25  H          0.74550000       0.94600000       0.66520000
    26  H          0.25450000       0.44600000       0.83480000
    27  H          0.25450000       0.05400000       0.33480000
    28  H          0.74550000       0.55400000       0.16520000
    29  H          0.06370000       0.88860000       0.59090000
    30  H          0.93630000       0.38860000       0.90910000
    31  H          0.93630000       0.11140000       0.40910000
    32  H          0.06370000       0.61140000       0.09090000
    33  H          0.67530000       0.88610000       0.54090000
    34  H          0.32470000       0.38610000       0.95910000
    35  H          0.32470000       0.11390000       0.45910000
    36  H          0.67530000       0.61390000       0.04090000
    37  H          0.55030000       0.80250000       0.81220000
    38  H          0.44970000       0.30250000       0.68780000
    39  H          0.44970000       0.19750000       0.18780000
    40  H          0.55030000       0.69750000       0.31220000
    41  H          0.58540000       0.64900000       0.79140000
    42  H          0.41460000       0.14900000       0.70860000
    43  H          0.41460000       0.35100000       0.20860000
    44  H          0.58540000       0.85100000       0.29140000
    45  H          0.85590000       0.46680000       0.58680000
    46  H          0.14410000       0.96680000       0.91320000
    47  H          0.14410000       0.53320000       0.41320000
    48  H          0.85590000       0.03320000       0.08680000
