data_UWUCEX02
_symmetry_space_group_name_H-M    'P1'
_symmetry_Int_Tables_number       1
loop_
_symmetry_equiv_pos_site_id
_symmetry_equiv_pos_as_xyz
1 x,y,z
_cell_length_a                   9.62803
_cell_length_b                   13.01724
_cell_length_c                   19.59286
_cell_angle_alpha                90.0
_cell_angle_beta                 100.0712
_cell_angle_gamma                90.0
loop_
_atom_site_label
_atom_site_type_symbol
_atom_site_fract_x
_atom_site_fract_y
_atom_site_fract_z
     1  F          0.39850110       0.21934800       0.16302500
     2  F          0.60149890       0.71934800       0.33697500
     3  F          0.60149890       0.78065200       0.83697500
     4  F          0.39850110       0.28065200       0.66302500
     5  F          0.12367120       0.79561800       0.79939500
     6  F          0.87632880       0.29561800       0.70060500
     7  F          0.87632880       0.20438200       0.20060500
     8  F          0.12367120       0.70438200       0.29939500
     9  O          0.02393120       0.22731900       0.98989600
    10  O          0.97606880       0.72731900       0.51010400
    11  O          0.97606880       0.77268100       0.01010400
    12  O          0.02393120       0.27268100       0.48989600
    13  N          0.25929140       0.21131110       0.02901700
    14  N          0.74070860       0.71131110       0.47098300
    15  N          0.74070860       0.78868890       0.97098300
    16  N          0.25929140       0.28868890       0.52901700
    17  H          0.34385400       0.23362700       0.02518200
    18  H          0.65614600       0.73362700       0.47481800
    19  H          0.65614600       0.76637300       0.97481800
    20  H          0.34385400       0.26637300       0.52518200
    21  C          0.24867160       0.12903130       0.07496800
    22  C          0.75132840       0.62903130       0.42503200
    23  C          0.75132840       0.87096870       0.92503200
    24  C          0.24867160       0.37096870       0.57496800
    25  C          0.31981170       0.13439130       0.14311800
    26  C          0.68018830       0.63439130       0.35688200
    27  C          0.68018830       0.86560870       0.85688200
    28  C          0.31981170       0.36560870       0.64311800
    29  C          0.31268180       0.05798140       0.19059800
    30  C          0.68731820       0.55798140       0.30940200
    31  C          0.68731820       0.94201860       0.80940200
    32  C          0.31268180       0.44201860       0.69059800
    33  H          0.36153700       0.06427700       0.23691600
    34  H          0.63846300       0.56427700       0.26308400
    35  H          0.63846300       0.93572300       0.76308400
    36  H          0.36153700       0.43572300       0.73691600
    37  C          0.23291180       0.97158860       0.16965800
    38  C          0.76708820       0.47158860       0.33034200
    39  C          0.76708820       0.02841140       0.83034200
    40  C          0.23291180       0.52841140       0.66965800
    41  H          0.22689500       0.91775400       0.20173700
    42  H          0.77310500       0.41775400       0.29826300
    43  H          0.77310500       0.08224600       0.79826300
    44  H          0.22689500       0.58224600       0.70173700
    45  C          0.16147170       0.96325870       0.10174800
    46  C          0.83852830       0.46325870       0.39825200
    47  C          0.83852830       0.03674130       0.89825200
    48  C          0.16147170       0.53674130       0.60174800
    49  H          0.10694200       0.90373100       0.08753400
    50  H          0.89305800       0.40373100       0.41246600
    51  H          0.89305800       0.09626900       0.91246600
    52  H          0.10694200       0.59626900       0.58753400
    53  C          0.16972170       0.04177130       0.05471800
    54  C          0.83027830       0.54177130       0.44528200
    55  C          0.83027830       0.95822870       0.94528200
    56  C          0.16972170       0.45822870       0.55471800
    57  H          0.12095100       0.03565300       0.00835400
    58  H          0.87904900       0.53565300       0.49164600
    59  H          0.87904900       0.96434700       0.99164600
    60  H          0.12095100       0.46434700       0.50835400
    61  C          0.14507170       0.25770130       0.99040800
    62  C          0.85492830       0.75770130       0.50959200
    63  C          0.85492830       0.74229870       0.00959200
    64  C          0.14507170       0.24229870       0.49040800
    65  C          0.18032170       0.34892130       0.95176800
    66  C          0.81967830       0.84892130       0.54823200
    67  C          0.81967830       0.65107870       0.04823200
    68  C          0.18032170       0.15107870       0.45176800
    69  H          0.27352500       0.35811900       0.94304500
    70  H          0.72647500       0.85811900       0.55695500
    71  H          0.72647500       0.64188100       0.05695500
    72  H          0.27352500       0.14188100       0.44304500
    73  C          0.08068170       0.41829130       0.92919800
    74  C          0.91931830       0.91829130       0.57080200
    75  C          0.91931830       0.58170870       0.07080200
    76  C          0.08068170       0.08170870       0.42919800
    77  H         -0.01160000       0.40248700       0.93698400
    78  H          0.01160000       0.90248700       0.56301600
    79  H          0.01160000       0.59751300       0.06301600
    80  H         -0.01160000       0.09751300       0.43698400
    81  C          0.09599170       0.51536130       0.89402800
    82  C          0.90400830       0.01536130       0.60597200
    83  C          0.90400830       0.48463870       0.10597200
    84  C          0.09599170       0.98463870       0.39402800
    85  C          0.21973180       0.54455140       0.87061800
    86  C          0.78026820       0.04455140       0.62938200
    87  C          0.78026820       0.45544860       0.12938200
    88  C          0.21973180       0.95544860       0.37061800
    89  H          0.29778000       0.49879600       0.87635500
    90  H          0.70222000      -0.00120400       0.62364500
    91  H          0.70222000       0.50120400       0.12364500
    92  H          0.29778000       0.00120400       0.37635500
    93  C          0.23018190       0.63876140       0.83930800
    94  C          0.76981810       0.13876140       0.66069200
    95  C          0.76981810       0.36123860       0.16069200
    96  C          0.23018190       0.86123860       0.33930800
    97  H          0.31491600       0.65882100       0.82439000
    98  H          0.68508400       0.15882100       0.67561000
    99  H          0.68508400       0.34117900       0.17561000
   100  H          0.31491600       0.84117900       0.32439000
   101  C          0.11439190       0.70282130       0.83029800
   102  C          0.88560810       0.20282130       0.66970200
   103  C          0.88560810       0.29717870       0.16970200
   104  C          0.11439190       0.79717870       0.33029800
   105  C         -0.00985190       0.67800140       0.85165900
   106  C          0.00985190       0.17800140       0.64834100
   107  C          0.00985190       0.32199860       0.14834100
   108  C         -0.00985190       0.82199860       0.35165900
   109  H          0.91210200       0.72377400       0.84448600
   110  H          0.08789800       0.22377400       0.65551400
   111  H          0.08789800       0.27622600       0.15551400
   112  H          0.91210200       0.77622600       0.34448600
   113  C          0.98225820       0.58382140       0.88405800
   114  C          0.01774180       0.08382140       0.61594200
   115  C          0.01774180       0.41617860       0.11594200
   116  C          0.98225820       0.91617860       0.38405800
   117  H          0.89772200       0.56548900       0.89980700
   118  H          0.10227800       0.06548900       0.60019300
   119  H          0.10227800       0.43451100       0.10019300
   120  H          0.89772200       0.93451100       0.39980700
   121  F          0.78409870       0.27664800       0.83556600
   122  F          0.21590130       0.77664800       0.66443400
   123  F          0.21590130       0.72335200       0.16443400
   124  F          0.78409870       0.22335200       0.33556600
   125  F          0.77877870       0.71867200       0.20696500
   126  F          0.22122130       0.21867200       0.29303500
   127  F          0.22122130       0.28132800       0.79303500
   128  F          0.77877870       0.78132800       0.70696500
   129  O          0.52902880       0.27926900       0.00674600
   130  O          0.47097120       0.77926900       0.49325400
   131  O          0.47097120       0.72073100      -0.00674600
   132  O          0.52902880       0.22073100       0.50674600
   133  N          0.73625860       0.29248110       0.96695700
   134  N          0.26374140       0.79248110       0.53304300
   135  N          0.26374140       0.70751890       0.03304300
   136  N          0.73625860       0.20751890       0.46695700
   137  H          0.82360000       0.27001900       0.97149500
   138  H          0.17640000       0.77001900       0.52850500
   139  H          0.17640000       0.72998100       0.02850500
   140  H          0.82360000       0.22998100       0.47149500
   141  C          0.69393840       0.37257130       0.91919800
   142  C          0.30606160       0.87257130       0.58080200
   143  C          0.30606160       0.62742870       0.08080200
   144  C          0.69393840       0.12742870       0.41919800
   145  C          0.72053820       0.36332130       0.85199800
   146  C          0.27946180       0.86332130       0.64800200
   147  C          0.27946180       0.63667870       0.14800200
   148  C          0.72053820       0.13667870       0.35199800
   149  C          0.68414810       0.43817140       0.80235900
   150  C          0.31585190       0.93817140       0.69764100
   151  C          0.31585190       0.56182860       0.19764100
   152  C          0.68414810       0.06182860       0.30235900
   153  H          0.70298200       0.42931200       0.75670800
   154  H          0.29701800       0.92931200       0.74329200
   155  H          0.29701800       0.57068800       0.24329200
   156  H          0.70298200       0.07068800       0.25670800
   157  C          0.61944820       0.52668140       0.82056900
   158  C          0.38055180       0.02668140       0.67943100
   159  C          0.38055180       0.47331860       0.17943100
   160  C          0.61944820       0.97331860       0.32056900
   161  H          0.59383300       0.57940300       0.78721000
   162  H          0.40616700       0.07940300       0.71279000
   163  H          0.40616700       0.42059700       0.21279000
   164  H          0.59383300       0.92059700       0.28721000
   165  C          0.59191830       0.53865140       0.88733900
   166  C          0.40808170       0.03865140       0.61266100
   167  C          0.40808170       0.46134860       0.11266100
   168  C          0.59191830       0.96134860       0.38733900
   169  H          0.54762600       0.59954500       0.89948400
   170  H          0.45237400       0.09954500       0.60051600
   171  H          0.45237400       0.40045500       0.10051600
   172  H          0.54762600       0.90045500       0.39948400
   173  C          0.62887830       0.46190130       0.93646800
   174  C          0.37112170       0.96190130       0.56353200
   175  C          0.37112170       0.53809870       0.06353200
   176  C          0.62887830       0.03809870       0.43646800
   177  H          0.60960300       0.47050800       0.98204100
   178  H          0.39039700       0.97050800       0.51795900
   179  H          0.39039700       0.52949200       0.01795900
   180  H          0.60960300       0.02949200       0.48204100
   181  C          0.64957830       0.24820130       0.00626800
   182  C          0.35042170       0.74820130       0.49373200
   183  C          0.35042170       0.75179870      -0.00626800
   184  C          0.64957830       0.25179870       0.50626800
   185  C          0.71196830       0.15720130       0.04571800
   186  C          0.28803170       0.65720130       0.45428200
   187  C          0.28803170       0.84279870       0.95428200
   188  C          0.71196830       0.34279870       0.54571800
   189  H          0.81138200       0.14795500       0.05425200
   190  H          0.18861800       0.64795500       0.44574800
   191  H          0.18861800       0.85204500       0.94574800
   192  H          0.81138200       0.35204500       0.55425200
   193  C          0.62945830       0.08831130       0.06926800
   194  C          0.37054170       0.58831130       0.43073200
   195  C          0.37054170       0.91168870       0.93073200
   196  C          0.62945830       0.41168870       0.56926800
   197  H          0.53130900       0.10303600       0.06114100
   198  H          0.46869100       0.60303600       0.43885900
   199  H          0.46869100       0.89696400       0.93885900
   200  H          0.53130900       0.39696400       0.56114100
   201  C          0.67246830      -0.00732130       0.10613800
   202  C          0.32753170       0.49267870       0.39386200
   203  C          0.32753170       0.00732130       0.89386200
   204  C          0.67246830       0.50732130       0.60613800
   205  C          0.81318820       0.97015860       0.13426800
   206  C          0.18681180       0.47015860       0.36573200
   207  C          0.18681180       0.02984140       0.86573200
   208  C          0.81318820       0.52984140       0.63426800
   209  H          0.88472100       0.01893100       0.13024000
   210  H          0.11527900       0.51893100       0.36976000
   211  H          0.11527900       0.98106900       0.86976000
   212  H          0.88472100       0.48106900       0.63024000
   213  C          0.84957810       0.87765860       0.16790900
   214  C          0.15042190       0.37765860       0.33209100
   215  C          0.15042190       0.12234140       0.83209100
   216  C          0.84957810       0.62234140       0.66790900
   217  H          0.94517900       0.86210200       0.18635400
   218  H          0.05482100       0.36210200       0.31364600
   219  H          0.05482100       0.13789800       0.81364600
   220  H          0.94517900       0.63789800       0.68635400
   221  C          0.74338000       0.80894860       0.17385800
   222  C          0.25662000       0.30894860       0.32614200
   223  C          0.25662000       0.19105140       0.82614200
   224  C          0.74338000       0.69105140       0.67385800
   225  C          0.60368000       0.82741860       0.14780900
   226  C          0.39632000       0.32741860       0.35219100
   227  C          0.39632000       0.17258140       0.85219100
   228  C          0.60368000       0.67258140       0.64780900
   229  H          0.53302700       0.77840400       0.15277500
   230  H          0.46697300       0.27840400       0.34722500
   231  H          0.46697300       0.22159600       0.84722500
   232  H          0.53302700       0.72159600       0.65277500
   233  C          0.56915810       0.91995860       0.11398800
   234  C          0.43084190       0.41995860       0.38601200
   235  C          0.43084190       0.08004140       0.88601200
   236  C          0.56915810       0.58004140       0.61398800
   237  H          0.47313900       0.93438900       0.09570500
   238  H          0.52686100       0.43438900       0.40429500
   239  H          0.52686100       0.06561100       0.90429500
   240  H          0.47313900       0.56561100       0.59570500
