data_UWUCEX
_symmetry_space_group_name_H-M    'P1'
_symmetry_Int_Tables_number       1
loop_
_symmetry_equiv_pos_site_id
_symmetry_equiv_pos_as_xyz
1 x,y,z
_cell_length_a                   9.63929
_cell_length_b                   9.87729
_cell_length_c                   13.01781
_cell_angle_alpha                94.7165
_cell_angle_beta                 90.1725
_cell_angle_gamma                100.0335
loop_
_atom_site_label
_atom_site_type_symbol
_atom_site_fract_x
_atom_site_fract_y
_atom_site_fract_z
     1  F          0.90482100       0.32579900       0.30057600
     2  F          0.09517900       0.67420100       0.69942400
     3  F          0.62269100       0.60569900       0.68640400
     4  F          0.37730900       0.39430100       0.31359600
     5  O          0.52576100       0.98259100       0.27966700
     6  O          0.47423900       0.01740900       0.72033300
     7  N          0.76104120       0.06217120       0.29866800
     8  N          0.23895880       0.93782880       0.70133200
     9  H          0.84524900       0.05258800       0.27654100
    10  H          0.15475100       0.94741200       0.72345900
    11  C          0.75215140       0.15796140       0.38411900
    12  C          0.24784860       0.84203860       0.61588100
    13  C          0.82527150       0.29190150       0.38398900
    14  C          0.17472850       0.70809850       0.61601100
    15  C          0.82038160       0.39188150       0.46354100
    16  C          0.17961840       0.60811850       0.53645900
    17  H          0.87044400       0.48316000       0.46025400
    18  H          0.12955600       0.51684000       0.53974600
    19  C          0.74010160       0.35543150       0.54878100
    20  C          0.25989840       0.64456850       0.45121900
    21  H          0.73541400       0.42222900       0.60490600
    22  H          0.26458600       0.57777100       0.39509400
    23  C          0.66692150       0.22216160       0.55224100
    24  C          0.33307850       0.77783840       0.44775900
    25  H          0.61264100       0.19798900       0.61088800
    26  H          0.38735900       0.80201100       0.38911200
    27  C          0.67238140       0.12352150       0.47046900
    28  C          0.32761860       0.87647850       0.52953100
    29  H          0.62166900       0.03241800       0.47336800
    30  H          0.37833100       0.96758200       0.52663200
    31  C          0.64715140       0.98414140       0.24879900
    32  C          0.35284860       0.01585860       0.75120100
    33  C          0.68155140       0.90726140       0.15267900
    34  C          0.31844860       0.09273860       0.84732100
    35  H          0.77402600       0.88809900       0.14276900
    36  H          0.22597400       0.11190100       0.85723100
    37  C          0.58213150       0.86489140       0.07989900
    38  C          0.41786850       0.13510860       0.92010100
    39  H          0.49035300       0.88154900       0.09651200
    40  H          0.50964700       0.11845100       0.90348800
    41  C          0.59694140       0.79592130       0.97759100
    42  C          0.40305860       0.20407870       0.02240900
    43  C          0.71921150       0.74646140       0.94655900
    44  C          0.28078850       0.25353860       0.05344100
    45  H          0.79667900       0.75653800      -0.00648300
    46  H          0.20332100       0.24346200       0.00648300
    47  C          0.72902150       0.68320140       0.84874900
    48  C          0.27097850       0.31679860       0.15125100
    49  H          0.81248800       0.65074500       0.82760800
    50  H          0.18751200       0.34925500       0.17239200
    51  C          0.61386160       0.66850140       0.78250100
    52  C          0.38613840       0.33149860       0.21749900
    53  C          0.49157160       0.71474150       0.80919900
    54  C          0.50842840       0.28525850       0.19080100
    55  H          0.41436700       0.70293600       0.76184400
    56  H          0.58563300       0.29706400       0.23815600
    57  C          0.48383150       0.77928150       0.90737900
    58  C          0.51616850       0.22071850       0.09262100
    59  H          0.40035900       0.81268400       0.92720700
    60  H          0.59964100       0.18731600       0.07279300
    61  F          0.29297100       0.67330900       0.19547600
    62  F          0.70702900       0.32669100       0.80452400
    63  F          0.26565100       0.41368900       0.81287600
    64  F          0.73434900       0.58631100       0.18712400
    65  O          0.03059100       0.01499100       0.22620700
    66  O          0.96940900      -0.01499100       0.77379300
    67  N          0.23778120       0.93530120       0.20762800
    68  N          0.76221880       0.06469880       0.79237200
    69  H          0.32424800       0.94168100       0.23177900
    70  H          0.67575200       0.05831900       0.76822100
    71  C          0.19564140       0.84441140       0.11893900
    72  C          0.80435860       0.15558860       0.88106100
    73  C          0.22504150       0.71143150       0.11366900
    74  C          0.77495850       0.28856850       0.88633100
    75  C          0.18963160       0.61787150       0.02902100
    76  C          0.81036840       0.38212850       0.97097900
    77  H          0.21176000       0.52770800       0.02768900
    78  H          0.78824000       0.47229200       0.97231100
    79  C          0.12125150       0.65813150       0.94615900
    80  C          0.87874850       0.34186850       0.05384100
    81  H          0.09523800       0.59499500       0.88741700
    82  H          0.90476200       0.40500500       0.11258300
    83  C          0.09061140       0.79027150       0.94861900
    84  C          0.90938860       0.20972850       0.05138100
    85  H          0.04373600       0.81746000       0.89149000
    86  H          0.95626400       0.18254000       0.10851000
    87  C          0.12814140       0.88327140       0.03434900
    88  C          0.87185860       0.11672860       0.96565100
    89  H          0.10756000       0.97397700       0.03515000
    90  H          0.89244000       0.02602300       0.96485000
    91  C          0.15145140       0.01332130       0.25741900
    92  C          0.84854860      -0.01332130       0.74258100
    93  C          0.21357150       0.09127140       0.35317900
    94  C          0.78642850       0.90872860       0.64682100
    95  H          0.31275700       0.10816500       0.36428600
    96  H          0.68724300       0.89183500       0.63571400
    97  C          0.12912150       0.13808140       0.42433900
    98  C          0.87087850       0.86191860       0.57566100
    99  H          0.03129000       0.12091400       0.40758500
   100  H          0.96871000       0.87908600       0.59241500
   101  C          0.17004140       0.21252140       0.52478900
   102  C          0.82995860       0.78747860       0.47521100
   103  C          0.30895150       0.26937140       0.55336100
   104  C          0.69104850       0.73062860       0.44663900
   105  H          0.38197800       0.26131400       0.50559600
   106  H          0.61802200       0.73868600       0.49440400
   107  C          0.34256160       0.33730150       0.64992100
   108  C          0.65743840       0.66269850       0.35007900
   109  H          0.43733100       0.37556600       0.66910100
   110  H          0.56266900       0.62443400       0.33089900
   111  C          0.23337160       0.34768140       0.71777100
   112  C          0.76662840       0.65231860       0.28222900
   113  C          0.09521160       0.29498150       0.69346100
   114  C          0.90478840       0.70501850       0.30653900
   115  H          0.02312800       0.30444600       0.74175800
   116  H          0.97687200       0.69555400       0.25824200
   117  C          0.06319150       0.22720140       0.59612100
   118  C          0.93680850       0.77279860       0.40387900
   119  H          0.96789000       0.19031900       0.57756700
   120  H          0.03211000       0.80968100       0.42243300
