data_UWUCEX01
_symmetry_space_group_name_H-M    'P1'
_symmetry_Int_Tables_number       1
loop_
_symmetry_equiv_pos_site_id
_symmetry_equiv_pos_as_xyz
1 x,y,z
_cell_length_a                   4.780801
_cell_length_b                   5.400101
_cell_length_c                   23.29026
_cell_angle_alpha                90.0
_cell_angle_beta                 95.0872
_cell_angle_gamma                90.0
loop_
_atom_site_label
_atom_site_type_symbol
_atom_site_fract_x
_atom_site_fract_y
_atom_site_fract_z
     1  F          0.34532000       0.78832000       0.91432500
     2  F          0.65468000       0.28832000       0.08567500
     3  F          0.09923000       0.70227000       0.53737500
     4  F          0.90077000       0.20227000       0.46262500
     5  O          0.95503000       0.70283000       0.76932600
     6  O          0.04497000       0.20283000       0.23067400
     7  N          0.54743000       0.78723000       0.80944600
     8  N          0.45257000       0.28723000       0.19055400
     9  H          0.36626200       0.75560800       0.80748300
    10  H          0.63373800       0.25560800       0.19251700
    11  C          0.65564000       0.95794000       0.85150700
    12  C          0.34436000       0.45794000       0.14849300
    13  C          0.54714000       0.95654000       0.90525800
    14  C          0.45286000       0.45654000       0.09474200
    15  C          0.63484000       0.11884000       0.94861800
    16  C          0.36516000       0.61884000       0.05138200
    17  H          0.55587100       0.11319300       0.98461300
    18  H          0.44412900       0.61319300       0.01538700
    19  C          0.84034000       0.29084000       0.93890900
    20  C          0.15966000       0.79084000       0.06109100
    21  H          0.90483200       0.40373800       0.96843700
    22  H          0.09516800       0.90373800       0.03156300
    23  C          0.95204000       0.29774000       0.88577900
    24  C          0.04796000       0.79774000       0.11422100
    25  H          0.09205300       0.41642700       0.87907300
    26  H          0.90794700       0.91642700       0.12092700
    27  C          0.86064000       0.13264000       0.84250800
    28  C          0.13936000       0.63264000       0.15749200
    29  H          0.93883400       0.13897800       0.80642100
    30  H          0.06116600       0.63897800       0.19357900
    31  C          0.70164000       0.66764000       0.77163700
    32  C          0.29836000       0.16764000       0.22836300
    33  C          0.53804000       0.48984000       0.73370800
    34  C          0.46196000      -0.01016000       0.26629200
    35  H          0.34980000       0.45358800       0.74091100
    36  H          0.65020000       0.95358800       0.25908900
    37  C          0.64714000       0.37974000       0.68985800
    38  C          0.35286000       0.87974000       0.31014200
    39  H          0.83537200       0.42018400       0.68356600
    40  H          0.16462800       0.92018400       0.31643400
    41  C          0.50184000       0.20114000       0.65038700
    42  C          0.49816000       0.70114000       0.34961300
    43  C          0.57814000       0.17824000       0.59388800
    44  C          0.42186000       0.67824000       0.40611200
    45  H          0.72530300       0.27804400       0.58165300
    46  H          0.27469700       0.77804400       0.41834700
    47  C          0.44194000       0.01194000       0.55557800
    48  C          0.55806000       0.51194000       0.44442200
    49  H          0.49162600      -0.00101500       0.51708000
    50  H          0.50837400       0.49898500       0.48292000
    51  C          0.23314000       0.86616000       0.57466900
    52  C          0.76686000       0.36616000       0.42533100
    53  C          0.15334000       0.87996000       0.62999900
    54  C          0.84666000       0.37996000       0.37000100
    55  H          0.00815100       0.77686200       0.64190700
    56  H         -0.00815100       0.27686200       0.35809300
    57  C          0.28914000       0.04704000       0.66770800
    58  C          0.71086000       0.54704000       0.33229200
    59  H          0.23739500       0.05770000       0.70608000
    60  H          0.76260500       0.55770000       0.29392000
