data_UWUKAZ
_symmetry_space_group_name_H-M    'P1'
_symmetry_Int_Tables_number       1
loop_
_symmetry_equiv_pos_site_id
_symmetry_equiv_pos_as_xyz
1 x,y,z
_cell_length_a                   4.81801
_cell_length_b                   11.6002
_cell_length_c                   15.1463
_cell_angle_alpha                90.0
_cell_angle_beta                 90.682
_cell_angle_gamma                90.0
loop_
_atom_site_label
_atom_site_type_symbol
_atom_site_fract_x
_atom_site_fract_y
_atom_site_fract_z
     1  Cl         0.71712900       0.50641400       0.39190300
     2  Cl         0.28287100       0.00641400       0.60809700
     3  Cl         0.76305100       0.53270400       0.09983300
     4  Cl         0.23694900       0.03270400       0.90016700
     5  O          0.37713000       0.71116150       0.34017100
     6  O          0.62287000       0.21116150       0.65982900
     7  H          0.26950000       0.76220000       0.32331600
     8  H          0.73050000       0.26220000       0.67668400
     9  O         -0.01393000       0.72017140       0.21744100
    10  O          0.01393000       0.22017140       0.78255900
    11  O          0.10503000       0.32513150       0.15175900
    12  O          0.89497000       0.82513150       0.84824100
    13  O          0.51173000       0.32092150       0.27247100
    14  O          0.48827000       0.82092150       0.72752900
    15  C          0.45924000       0.51522000       0.31175120
    16  C          0.54076000       0.01522000       0.68824880
    17  C          0.32304000       0.61559190       0.29558130
    18  C          0.67696000       0.11559190       0.70441870
    19  C          0.09624000       0.62342000       0.22588130
    20  C          0.90376000       0.12342000       0.77411870
    21  C          0.02894000       0.52362000       0.17772120
    22  C         -0.02894000       0.02362000       0.82227880
    23  C          0.15904000       0.41742000       0.19091130
    24  C          0.84096000       0.91742000       0.80908870
    25  C          0.39354000       0.41239190       0.26185140
    26  C          0.60646000       0.91239190       0.73814860
    27  N          0.38773000       0.11685170       0.15961110
    28  N          0.61227000       0.61685170       0.84038890
    29  H          0.28950000       0.18320000       0.17051500
    30  H          0.71050000       0.68320000       0.82948500
    31  N          0.13293000       0.93529830       0.33765100
    32  N          0.86707000       0.43529830       0.66234900
    33  C          0.35934000       0.02462000       0.21471110
    34  C          0.64066000       0.52462000       0.78528890
    35  C          0.52294000       0.92827810       0.19947130
    36  C          0.47706000       0.42827810       0.80052870
    37  H          0.51160000       0.86460000       0.23660000
    38  H          0.48840000       0.36460000       0.76340000
    39  C          0.70334000       0.92708000       0.12881140
    40  C          0.29666000       0.42708000       0.87118860
    41  H          0.81400000       0.86290000       0.11880000
    42  H          0.18600000       0.36290000       0.88120000
    43  C          0.71884000       0.02102000       0.07331120
    44  C          0.28116000       0.52102000       0.92668880
    45  H          0.83460000       0.01900000       0.02470000
    46  H          0.16540000       0.51900000       0.97530000
    47  C          0.56114000       0.11882000       0.09011130
    48  C          0.43886000       0.61882000       0.90988870
    49  C          0.57625000       0.22582000       0.03612140
    50  C          0.42375000       0.72582000       0.96387860
    51  H          0.66900000       0.20950000       0.98180000
    52  H          0.33100000       0.70950000       0.01820000
    53  H          0.67740000       0.28370000       0.06830000
    54  H          0.32260000       0.78370000       0.93170000
    55  H          0.39180000       0.25310000       0.02350000
    56  H          0.60820000       0.75310000       0.97650000
    57  C          0.15724000       0.03152000       0.28794120
    58  C          0.84276000       0.53152000       0.71205880
    59  C          0.00074000       0.13052190       0.30292130
    60  C         -0.00074000       0.63052190       0.69707870
    61  H          0.01790000       0.19490000       0.26680000
    62  H         -0.01790000       0.69490000       0.73320000
    63  C          0.81826000       0.13032000       0.37333140
    64  C          0.18174000       0.63032000       0.62666860
    65  H          0.71230000       0.19530000       0.38550000
    66  H          0.28770000       0.69530000       0.61450000
    67  C          0.79506000       0.03282000       0.42501130
    68  C          0.20494000       0.53282000       0.57498870
    69  H          0.67510000       0.03170000       0.47260000
    70  H          0.32490000       0.53170000       0.52740000
    71  C          0.95396000       0.93608000       0.40528130
    72  C          0.04604000       0.43608000       0.59471870
    73  C          0.92635000       0.82688000       0.45833140
    74  C          0.07365000       0.32688000       0.54166860
    75  H          0.82280000       0.84250000       0.51080000
    76  H          0.17720000       0.34250000       0.48920000
    77  H          0.10760000       0.79900000       0.47440000
    78  H          0.89240000       0.29900000       0.52560000
    79  H          0.83120000       0.76970000       0.42360000
    80  H          0.16880000       0.26970000       0.57640000
