data_UWUKAZ02
_symmetry_space_group_name_H-M    'P1'
_symmetry_Int_Tables_number       1
loop_
_symmetry_equiv_pos_site_id
_symmetry_equiv_pos_as_xyz
1 x,y,z
_cell_length_a                   15.6248
_cell_length_b                   12.0016
_cell_length_c                   9.9005
_cell_angle_alpha                90.0
_cell_angle_beta                 109.452
_cell_angle_gamma                90.0
loop_
_atom_site_label
_atom_site_type_symbol
_atom_site_fract_x
_atom_site_fract_y
_atom_site_fract_z
     1  Cl         0.84941300       0.97193500       0.44211400
     2  Cl         0.15058700       0.97193500       0.05788600
     3  Cl         0.34941300       0.47193500       0.44211400
     4  Cl         0.65058700       0.47193500       0.05788600
     5  Cl         0.15058700       0.02806500       0.55788600
     6  Cl         0.84941300       0.02806500       0.94211400
     7  Cl         0.65058700       0.52806500       0.55788600
     8  Cl         0.34941300       0.52806500       0.94211400
     9  O          0.93162120       0.77885860       0.62568170
    10  O          0.06837880       0.77885860       0.87431830
    11  O          0.43162120       0.27885860       0.62568170
    12  O          0.56837880       0.27885860       0.87431830
    13  O          0.06837880       0.22114140       0.37431830
    14  O          0.93162120       0.22114140       0.12568170
    15  O          0.56837880       0.72114140       0.37431830
    16  O          0.43162120       0.72114140       0.12568170
    17  O          0.93339150       0.16849170       0.62202000
    18  O          0.06660850       0.16849170       0.87798000
    19  O          0.43339150       0.66849170       0.62202000
    20  O          0.56660850       0.66849170       0.87798000
    21  O          0.06660850       0.83150830       0.37798000
    22  O          0.93339150       0.83150830       0.12202000
    23  O          0.56660850       0.33150830       0.37798000
    24  O          0.43339150       0.33150830       0.12202000
    25  C          0.93194110       0.97347830       0.61043160
    26  C          0.06805890       0.97347830       0.88956840
    27  C          0.43194110       0.47347830       0.61043160
    28  C          0.56805890       0.47347830       0.88956840
    29  C          0.06805890       0.02652170       0.38956840
    30  C          0.93194110       0.02652170       0.11043160
    31  C          0.56805890       0.52652170       0.38956840
    32  C          0.43194110       0.52652170       0.11043160
    33  C          0.96240110       0.87502820       0.67791160
    34  C          0.03759890       0.87502820       0.82208840
    35  C          0.46240110       0.37502820       0.67791160
    36  C          0.53759890       0.37502820       0.82208840
    37  C          0.03759890       0.12497180       0.32208840
    38  C          0.96240110       0.12497180       0.17791160
    39  C          0.53759890       0.62497180       0.32208840
    40  C          0.46240110       0.62497180       0.17791160
    41  C          0.96250140       0.07902000       0.67493190
    42  C          0.03749860       0.07902000       0.82506810
    43  C          0.46250140       0.57902000       0.67493190
    44  C          0.53749860       0.57902000       0.82506810
    45  C          0.03749860       0.92098000       0.32506810
    46  C          0.96250140       0.92098000       0.17493190
    47  C          0.53749860       0.42098000       0.32506810
    48  C          0.46250140       0.42098000       0.17493190
    49  N          0.58217110       0.09739170       0.72511160
    50  N          0.41782890       0.09739170       0.77488840
    51  N          0.08217110       0.59739170       0.72511160
    52  N          0.91782890       0.59739170       0.77488840
    53  N          0.41782890       0.90260830       0.27488840
    54  N          0.58217110       0.90260830       0.22511160
    55  N          0.91782890       0.40260830       0.27488840
    56  N          0.08217110       0.40260830       0.22511160
    57  C          0.53718150       0.00002000       0.72102000
    58  C          0.46281850       0.00002000       0.77898000
    59  C          0.03718150       0.50002000       0.72102000
    60  C          0.96281850       0.50002000       0.77898000
    61  C          0.46281850      -0.00002000       0.27898000
    62  C          0.53718150      -0.00002000       0.22102000
    63  C          0.96281850       0.49998000       0.27898000
    64  C          0.03718150       0.49998000       0.22102000
    65  C          0.56312000       0.90657000       0.66013000
    66  C          0.43688000       0.90657000       0.83987000
    67  C          0.06312000       0.40657000       0.66013000
    68  C          0.93688000       0.40657000       0.83987000
    69  C          0.43688000       0.09343000       0.33987000
    70  C          0.56312000       0.09343000       0.16013000
    71  C          0.93688000       0.59343000       0.33987000
    72  C          0.06312000       0.59343000       0.16013000
    73  C          0.63302000       0.91556000       0.60653000
    74  C          0.36698000       0.91556000       0.89347000
    75  C          0.13302000       0.41556000       0.60653000
    76  C          0.86698000       0.41556000       0.89347000
    77  C          0.36698000       0.08444000       0.39347000
    78  C          0.63302000       0.08444000       0.10653000
    79  C          0.86698000       0.58444000       0.39347000
    80  C          0.13302000       0.58444000       0.10653000
    81  C          0.67682000       0.01374000       0.61193000
    82  C          0.32318000       0.01374000       0.88807000
    83  C          0.17682000       0.51374000       0.61193000
    84  C          0.82318000       0.51374000       0.88807000
    85  C          0.32318000       0.98626000       0.38807000
    86  C          0.67682000       0.98626000       0.11193000
    87  C          0.82318000       0.48626000       0.38807000
    88  C          0.17682000       0.48626000       0.11193000
    89  C          0.65080150       0.10642000       0.67272000
    90  C          0.34919850       0.10642000       0.82728000
    91  C          0.15080150       0.60642000       0.67272000
    92  C          0.84919850       0.60642000       0.82728000
    93  C          0.34919850       0.89358000       0.32728000
    94  C          0.65080150       0.89358000       0.17272000
    95  C          0.84919850       0.39358000       0.32728000
    96  C          0.15080150       0.39358000       0.17272000
    97  C          0.69612000       0.21593000       0.68194000
    98  C          0.30388000       0.21593000       0.81806000
    99  C          0.19612000       0.71593000       0.68194000
   100  C          0.80388000       0.71593000       0.81806000
   101  C          0.30388000       0.78407000       0.31806000
   102  C          0.69612000       0.78407000       0.18194000
   103  C          0.80388000       0.28407000       0.31806000
   104  C          0.19612000       0.28407000       0.18194000
   105  H          0.53091900       0.84180000       0.66030000
   106  H          0.46908100       0.84180000       0.83970000
   107  H          0.03091900       0.34180000       0.66030000
   108  H          0.96908100       0.34180000       0.83970000
   109  H          0.46908100       0.15820000       0.33970000
   110  H          0.53091900       0.15820000       0.16030000
   111  H          0.96908100       0.65820000       0.33970000
   112  H          0.03091900       0.65820000       0.16030000
   113  H          0.65011800       0.85770000       0.56130000
   114  H          0.34988200       0.85770000       0.93870000
   115  H          0.15011800       0.35770000       0.56130000
   116  H          0.84988200       0.35770000       0.93870000
   117  H          0.34988200       0.14230000       0.43870000
   118  H          0.65011800       0.14230000       0.06130000
   119  H          0.84988200       0.64230000       0.43870000
   120  H          0.15011800       0.64230000       0.06130000
   121  H          0.72920000       0.02320000       0.58140000
   122  H          0.27080000       0.02320000       0.91860000
   123  H          0.22920000       0.52320000       0.58140000
   124  H          0.77080000       0.52320000       0.91860000
   125  H          0.27080000       0.97680000       0.41860000
   126  H          0.72920000       0.97680000       0.08140000
   127  H          0.77080000       0.47680000       0.41860000
   128  H          0.22920000       0.47680000       0.08140000
   129  H          0.75320000       0.20530000       0.67340000
   130  H          0.24680000       0.20530000       0.82660000
   131  H          0.25320000       0.70530000       0.67340000
   132  H          0.74680000       0.70530000       0.82660000
   133  H          0.24680000       0.79470000       0.32660000
   134  H          0.75320000       0.79470000       0.17340000
   135  H          0.74680000       0.29470000       0.32660000
   136  H          0.25320000       0.29470000       0.17340000
   137  H          0.71020000       0.25930000       0.78150000
   138  H          0.28980000       0.25930000       0.71850000
   139  H          0.21020000       0.75930000       0.78150000
   140  H          0.78980000       0.75930000       0.71850000
   141  H          0.28980000       0.74070000       0.21850000
   142  H          0.71020000       0.74070000       0.28150000
   143  H          0.78980000       0.24070000       0.21850000
   144  H          0.21020000       0.24070000       0.28150000
   145  H          0.65820000       0.28230000       0.62250000
   146  H          0.34180000       0.28230000       0.87750000
   147  H          0.15820000       0.78230000       0.62250000
   148  H          0.84180000       0.78230000       0.87750000
   149  H          0.34180000       0.71770000       0.37750000
   150  H          0.65820000       0.71770000       0.12250000
   151  H          0.84180000       0.21770000       0.37750000
   152  H          0.15820000       0.21770000       0.12250000
   153  H          0.56420000       0.17630000       0.77840000
   154  H          0.43580000       0.17630000       0.72160000
   155  H          0.06420000       0.67630000       0.77840000
   156  H          0.93580000       0.67630000       0.72160000
   157  H          0.43580000       0.82370000       0.22160000
   158  H          0.56420000       0.82370000       0.27840000
   159  H          0.93580000       0.32370000       0.22160000
   160  H          0.06420000       0.32370000       0.27840000
