data_UWUKAZ04
_symmetry_space_group_name_H-M    'P1'
_symmetry_Int_Tables_number       1
loop_
_symmetry_equiv_pos_site_id
_symmetry_equiv_pos_as_xyz
1 x,y,z
_cell_length_a                   8.603416
_cell_length_b                   9.728818
_cell_length_c                   11.372914
_cell_angle_alpha                69.82912
_cell_angle_beta                 75.33812
_cell_angle_gamma                79.4511
loop_
_atom_site_label
_atom_site_type_symbol
_atom_site_fract_x
_atom_site_fract_y
_atom_site_fract_z
     1  Cl         0.63584130       0.94137100       0.15657800
     2  Cl         0.36415870       0.05862900       0.84342200
     3  Cl         0.40208100       0.57106800       0.80718700
     4  Cl         0.59791900       0.42893200       0.19281300
     5  O          0.34523000       0.14422000       0.21852170
     6  O          0.65477000       0.85578000       0.78147830
     7  O          0.25142000       0.40042000       0.07682000
     8  O          0.74858000       0.59958000       0.92318000
     9  O          0.68662000       0.36772000       0.73836170
    10  O          0.31338000       0.63228000       0.26163830
    11  O          0.78782000       0.10582000       0.88602000
    12  O          0.21218000       0.89418000       0.11398000
    13  C          0.57363000       0.11262000       0.05962000
    14  C          0.42637000       0.88738000       0.94038000
    15  C          0.43603000       0.19063000       0.10483190
    16  C          0.56397000       0.80937000       0.89516810
    17  C          0.37843000       0.34043000       0.02302000
    18  C          0.62157000       0.65957000       0.97698000
    19  C          0.46393000       0.39682000       0.90122000
    20  C          0.53607000       0.60318000       0.09878000
    21  C          0.60433000       0.32122000       0.84861180
    22  C          0.39567000       0.67878000       0.15138820
    23  C          0.66493000       0.16992000       0.93262000
    24  C          0.33507000       0.83008000       0.06738000
    25  H          0.25460000       0.24650000       0.22340000
    26  H          0.74540000       0.75350000       0.77660000
    27  N          0.00942000       0.29922000       0.64337170
    28  N         -0.00942000       0.70078000       0.35662830
    29  N         -0.00798000       0.22502000       0.35667150
    30  N          0.00798000       0.77498000       0.64332850
    31  C          0.05753000       0.27572000       0.52812180
    32  C          0.94247000       0.72428000       0.47187820
    33  C          0.21024000       0.30884000       0.45962000
    34  C          0.78976000       0.69116000       0.54038000
    35  C          0.30944000       0.36254000       0.50882000
    36  C          0.69056000       0.63746000       0.49118000
    37  C          0.25494000       0.38213000       0.62802000
    38  C          0.74506000       0.61787000       0.37198000
    39  C          0.10223000       0.34993000       0.69522000
    40  C          0.89777000       0.65007000       0.30478000
    41  C          0.94743000       0.21542000       0.48224180
    42  C          0.05257000       0.78458000       0.51775820
    43  C          0.81133000       0.15253000       0.56092000
    44  C          0.18867000       0.84747000       0.43908000
    45  C          0.71284000       0.09933000       0.50982000
    46  C          0.28716000       0.90067000       0.49018000
    47  C          0.75874000       0.11063000       0.38072000
    48  C          0.24126000       0.88937000       0.61928000
    49  C          0.89743000       0.17213000       0.30812190
    50  C          0.10257000       0.82787000       0.69187810
    51  C          0.03524000       0.36865000       0.82322000
    52  C          0.96476000       0.63135000       0.17678000
    53  C          0.95223000       0.18623000       0.16792000
    54  C          0.04777000       0.81377000       0.83208000
    55  H          0.24740000       0.29470000       0.37810000
    56  H          0.75260000       0.70530000       0.62190000
    57  H          0.41440000       0.38560000       0.46120000
    58  H          0.58560000       0.61440000       0.53880000
    59  H          0.32230000       0.41780000       0.66320000
    60  H          0.67770000       0.58220000       0.33680000
    61  H          0.78540000       0.14530000       0.64900000
    62  H          0.21460000       0.85470000       0.35100000
    63  H          0.61740000       0.05680000       0.56140000
    64  H          0.38260000       0.94320000       0.43860000
    65  H          0.69460000       0.07540000       0.34260000
    66  H          0.30540000       0.92460000       0.65740000
    67  H          0.98100000       0.46490000       0.81350000
    68  H          0.01900000       0.53510000       0.18650000
    69  H          0.11980000       0.35430000       0.86740000
    70  H          0.88020000       0.64570000       0.13260000
    71  H          0.96090000       0.29810000       0.87060000
    72  H          0.03910000       0.70190000       0.12940000
    73  H          0.90640000       0.27750000       0.11810000
    74  H          0.09360000       0.72250000       0.88190000
    75  H          0.91710000       0.10760000       0.15320000
    76  H          0.08290000       0.89240000       0.84680000
    77  H          0.06670000       0.18150000       0.14440000
    78  H          0.93330000       0.81850000       0.85560000
    79  H          0.85270000       0.27960000       0.70350000
    80  H          0.14730000       0.72040000       0.29650000
