data_UWUKAZ06
_symmetry_space_group_name_H-M    'P1'
_symmetry_Int_Tables_number       1
loop_
_symmetry_equiv_pos_site_id
_symmetry_equiv_pos_as_xyz
1 x,y,z
_cell_length_a                   9.7162
_cell_length_b                   11.8523
_cell_length_c                   16.1794
_cell_angle_alpha                90.0
_cell_angle_beta                 108.0634
_cell_angle_gamma                90.0
loop_
_atom_site_label
_atom_site_type_symbol
_atom_site_fract_x
_atom_site_fract_y
_atom_site_fract_z
     1  Cl         0.08931160       0.46333150       0.14463800
     2  Cl         0.91068840       0.96333150       0.35536200
     3  Cl         0.91068840       0.53666850       0.85536200
     4  Cl         0.08931160       0.03666850       0.64463800
     5  Cl         0.40287150       0.50814160       0.85196800
     6  Cl         0.59712850       0.00814160       0.64803200
     7  Cl         0.59712850       0.49185840       0.14803200
     8  Cl         0.40287150      -0.00814160       0.35196800
     9  O          0.24484000       0.66253000       0.10142000
    10  O          0.75516000       0.16253000       0.39858000
    11  O          0.75516000       0.33747000       0.89858000
    12  O          0.24484000       0.83747000       0.60142000
    13  O          0.36904000       0.68143000       0.98142000
    14  O          0.63096000       0.18143000       0.51858000
    15  O          0.63096000       0.31857000       0.01858000
    16  O          0.36904000       0.81857000       0.48142000
    17  O          0.25474000       0.30523000       0.89692000
    18  O          0.74526000       0.80523000       0.60308000
    19  O          0.74526000       0.69477000       0.10308000
    20  O          0.25474000       0.19477000       0.39692000
    21  O          0.12184000       0.28912000       0.01742000
    22  O          0.87816000       0.78912000       0.48258000
    23  O          0.87816000       0.71088000       0.98258000
    24  O          0.12184000       0.21088000       0.51742000
    25  C          0.17675000       0.47494000       0.06492000
    26  C          0.82325000       0.97494000       0.43508000
    27  C          0.82325000       0.52506000       0.93508000
    28  C          0.17675000       0.02506000       0.56492000
    29  C          0.24095000       0.57323000       0.05423000
    30  C          0.75905000       0.07323000       0.44577000
    31  C          0.75905000       0.42677000       0.94577000
    32  C          0.24095000       0.92677000       0.55423000
    33  C          0.31255000       0.58493000       0.98463000
    34  C          0.68745000       0.08493000       0.51537000
    35  C          0.68745000       0.41507000       0.01537000
    36  C          0.31255000       0.91507000       0.48463000
    37  C          0.31725000       0.49474000       0.93212000
    38  C          0.68275000      -0.00526000       0.56788000
    39  C          0.68275000       0.50526000       0.06788000
    40  C          0.31725000       0.00526000       0.43212000
    41  C          0.25415000       0.39083000       0.94123000
    42  C          0.74585000       0.89083000       0.55877000
    43  C          0.74585000       0.60917000       0.05877000
    44  C          0.25415000       0.10917000       0.44123000
    45  C          0.17885000       0.38013000       0.01173000
    46  C          0.82115000       0.88013000       0.48827000
    47  C          0.82115000       0.61987000       0.98827000
    48  C          0.17885000       0.11987000       0.51173000
    49  H          0.34760000       0.71850000       0.07030000
    50  H          0.65240000       0.21850000       0.42970000
    51  H          0.65240000       0.28150000       0.92970000
    52  H          0.34760000       0.78150000       0.57030000
    53  N          0.12615000       0.08673000       0.91512000
    54  N          0.87385000       0.58673000       0.58488000
    55  N          0.87385000       0.91327000       0.08488000
    56  N          0.12615000       0.41327000       0.41512000
    57  N          0.35964000       0.91848000       0.08712000
    58  N          0.64036000       0.41848000       0.41288000
    59  N          0.64036000       0.08152000       0.91288000
    60  N          0.35964000       0.58152000       0.58712000
    61  C          0.18515000      -0.00353000       0.96412000
    62  C          0.81485000       0.49647000       0.53588000
    63  C          0.81485000       0.00353000       0.03588000
    64  C          0.18515000       0.50353000       0.46412000
    65  C          0.11416000       0.89566000       0.94483000
    66  C          0.88584000       0.39566000       0.55517000
    67  C          0.88584000       0.10434000       0.05517000
    68  C          0.11416000       0.60434000       0.44483000
    69  C         -0.00987000       0.88836000       0.87573000
    70  C          0.00987000       0.38836000       0.62427000
    71  C          0.00987000       0.11164000       0.12427000
    72  C         -0.00987000       0.61164000       0.37573000
    73  C          0.93765000       0.98036000       0.82803000
    74  C          0.06235000       0.48036000       0.67197000
    75  C          0.06235000       0.01964000       0.17197000
    76  C          0.93765000       0.51964000       0.32803000
    77  C          0.00445000       0.08354000       0.84823000
    78  C         -0.00445000       0.58354000       0.65177000
    79  C         -0.00445000       0.91646000       0.15177000
    80  C          0.00445000       0.41646000       0.34823000
    81  C          0.32135000       0.00993000       0.03672000
    82  C          0.67865000       0.50993000       0.46328000
    83  C          0.67865000      -0.00993000       0.96328000
    84  C          0.32135000       0.49007000       0.53672000
    85  C          0.40166000       0.10864000       0.05003000
    86  C          0.59834000       0.60864000       0.44997000
    87  C          0.59834000       0.89136000       0.94997000
    88  C          0.40166000       0.39136000       0.55003000
    89  C          0.52376000       0.11344000       0.11753000
    90  C          0.47624000       0.61344000       0.38247000
    91  C          0.47624000       0.88656000       0.88247000
    92  C          0.52376000       0.38656000       0.61753000
    93  C          0.56326000       0.02254000       0.17153000
    94  C          0.43674000       0.52254000       0.32847000
    95  C          0.43674000       0.97746000       0.82847000
    96  C          0.56326000       0.47746000       0.67153000
    97  C          0.48165000       0.92466000       0.15443000
    98  C          0.51835000       0.42466000       0.34557000
    99  C          0.51835000       0.07534000       0.84557000
   100  C          0.48165000       0.57534000       0.65443000
   101  C          0.95313000       0.18894000       0.80073000
   102  C          0.04687000       0.68894000       0.69927000
   103  C          0.04687000       0.81106000       0.19927000
   104  C          0.95313000       0.31106000       0.30073000
   105  C          0.52447000       0.82126000       0.20823000
   106  C          0.47553000       0.32126000       0.29177000
   107  C          0.47553000       0.17874000       0.79177000
   108  C          0.52447000       0.67874000       0.70823000
   109  H          0.16750000       0.15240000       0.92930000
   110  H          0.83250000       0.65240000       0.57070000
   111  H          0.83250000       0.84760000       0.07070000
   112  H          0.16750000       0.34760000       0.42930000
   113  H          0.15160000       0.83120000       0.97920000
   114  H          0.84840000       0.33120000       0.52080000
   115  H          0.84840000       0.16880000       0.02080000
   116  H          0.15160000       0.66880000       0.47920000
   117  H          0.94230000       0.81800000       0.86090000
   118  H          0.05770000       0.31800000       0.63910000
   119  H          0.05770000       0.18200000       0.13910000
   120  H          0.94230000       0.68200000       0.36090000
   121  H          0.85260000       0.97560000       0.77940000
   122  H          0.14740000       0.47560000       0.72060000
   123  H          0.14740000       0.02440000       0.22060000
   124  H          0.85260000       0.52440000       0.27940000
   125  H          0.37410000       0.16920000       0.00980000
   126  H          0.62590000       0.66920000       0.49020000
   127  H          0.62590000       0.83080000       0.99020000
   128  H          0.37410000       0.33080000       0.50980000
   129  H          0.58020000       0.18040000       0.12880000
   130  H          0.41980000       0.68040000       0.37120000
   131  H          0.41980000       0.81960000       0.87120000
   132  H          0.58020000       0.31960000       0.62880000
   133  H          0.64500000       0.02800000       0.22210000
   134  H          0.35500000       0.52800000       0.27790000
   135  H          0.35500000       0.97200000       0.77790000
   136  H          0.64500000       0.47200000       0.72210000
   137  H          0.88870000       0.22500000       0.82600000
   138  H          0.11130000       0.72500000       0.67400000
   139  H          0.11130000       0.77500000       0.17400000
   140  H          0.88870000       0.27500000       0.32600000
   141  H          0.90420000       0.17320000       0.74130000
   142  H          0.09580000       0.67320000       0.75870000
   143  H          0.09580000       0.82680000       0.25870000
   144  H          0.90420000       0.32680000       0.24130000
   145  H          0.03330000       0.23710000       0.80490000
   146  H          0.96670000       0.73710000       0.69510000
   147  H          0.96670000       0.76290000       0.19510000
   148  H          0.03330000       0.26290000       0.30490000
   149  H          0.48290000       0.82420000       0.25420000
   150  H          0.51710000       0.32420000       0.24580000
   151  H          0.51710000       0.17580000       0.74580000
   152  H          0.48290000       0.67580000       0.75420000
   153  H          0.62690000       0.81900000       0.23180000
   154  H          0.37310000       0.31900000       0.26820000
   155  H          0.37310000       0.18100000       0.76820000
   156  H          0.62690000       0.68100000       0.73180000
   157  H          0.49130000       0.75550000       0.17420000
   158  H          0.50870000       0.25550000       0.32580000
   159  H          0.50870000       0.24450000       0.82580000
   160  H          0.49130000       0.74450000       0.67420000
