data_UWUKAZ01
_symmetry_space_group_name_H-M    'P1'
_symmetry_Int_Tables_number       1
loop_
_symmetry_equiv_pos_site_id
_symmetry_equiv_pos_as_xyz
1 x,y,z
_cell_length_a                   9.9664
_cell_length_b                   12.0025
_cell_length_c                   15.2905
_cell_angle_alpha                90.0
_cell_angle_beta                 107.9888
_cell_angle_gamma                90.0
loop_
_atom_site_label
_atom_site_type_symbol
_atom_site_fract_x
_atom_site_fract_y
_atom_site_fract_z
     1  Cl         0.43711500       0.21342500       0.09609300
     2  Cl         0.06288500       0.71342500       0.90390700
     3  Cl         0.56288500       0.78657500       0.90390700
     4  Cl         0.93711500       0.28657500       0.09609300
     5  Cl         0.05397500       0.22886600       0.39933300
     6  Cl         0.44602500       0.72886600       0.60066700
     7  Cl         0.94602500       0.77113400       0.60066700
     8  Cl         0.55397500       0.27113400       0.39933300
     9  O          0.61807180       0.41522160       0.16919140
    10  O          0.88192820       0.91522160       0.83080860
    11  O          0.38192820       0.58477840       0.83080860
    12  O          0.11807180       0.08477840       0.16919140
    13  O          0.87566180       0.41986170       0.30254130
    14  O          0.62433820       0.91986170       0.69745870
    15  O          0.12433820       0.58013830       0.69745870
    16  O          0.37566180       0.08013830       0.30254130
    17  O          0.87259160       0.03217150       0.32802120
    18  O          0.62740840       0.53217150       0.67197880
    19  O          0.12740840       0.96782850       0.67197880
    20  O          0.37259160       0.46782850       0.32802120
    21  O          0.62421150       0.02484150       0.18918110
    22  O          0.87578850       0.52484150       0.81081890
    23  O          0.37578850       0.97515850       0.81081890
    24  O          0.12421150       0.47515850       0.18918110
    25  C          0.60601170       0.22013170       0.17895130
    26  C          0.89398830       0.72013170       0.82104870
    27  C          0.39398830       0.77986830       0.82104870
    28  C          0.10601170       0.27986830       0.17895130
    29  C          0.67002190       0.32652000       0.20319140
    30  C          0.82997810       0.82652000       0.79680860
    31  C          0.32997810       0.67348000       0.79680860
    32  C          0.17002190       0.17348000       0.20319140
    33  C          0.82057190       0.32992000       0.27826140
    34  C          0.67942810       0.82992000       0.72173860
    35  C          0.17942810       0.67008000       0.72173860
    36  C          0.32057190       0.17008000       0.27826140
    37  C          0.88584180       0.22531180       0.31642130
    38  C          0.61415820       0.72531180       0.68357870
    39  C          0.11415820       0.77468820       0.68357870
    40  C          0.38584180       0.27468820       0.31642130
    41  C          0.81737180       0.12695190       0.29074130
    42  C          0.68262820       0.62695190       0.70925870
    43  C          0.18262820       0.87304810       0.70925870
    44  C          0.31737180       0.37304810       0.29074130
    45  C          0.67289170       0.12116190       0.21484130
    46  C          0.82710830       0.62116190       0.78515870
    47  C          0.32710830       0.87883810       0.78515870
    48  C          0.17289170       0.37883810       0.21484130
    49  H          0.78840000       0.94430000       0.31220000
    50  H          0.71160000       0.44430000       0.68780000
    51  H          0.21160000       0.05570000       0.68780000
    52  H          0.28840000       0.55570000       0.31220000
    53  N          0.78036160       0.85307190       0.16448130
    54  N          0.71963840       0.35307190       0.83551870
    55  N          0.21963840       0.14692810       0.83551870
    56  N          0.28036160       0.64692810       0.16448130
    57  N          0.72957160       0.84183180       0.33002120
    58  N          0.77042840       0.34183180       0.66997880
    59  N          0.27042840       0.15816820       0.66997880
    60  N          0.22957160       0.65816820       0.33002120
    61  C          0.79252000       0.75372000       0.20927160
    62  C          0.70748000       0.25372000       0.79072840
    63  C          0.20748000       0.24628000       0.79072840
    64  C          0.29252000       0.74628000       0.20927160
    65  C          0.85942000       0.66722000       0.18072000
    66  C          0.64058000       0.16722000       0.81928000
    67  C          0.14058000       0.33278000       0.81928000
    68  C          0.35942000       0.83278000       0.18072000
    69  C          0.91112000       0.68463000       0.10932000
    70  C          0.58888000       0.18463000       0.89068000
    71  C          0.08888000       0.31537000       0.89068000
    72  C          0.41112000       0.81537000       0.10932000
    73  C          0.89702000       0.78573000       0.06694190
    74  C          0.60298000       0.28573000       0.93305810
    75  C          0.10298000       0.21427000       0.93305810
    76  C          0.39702000       0.71427000       0.06694190
    77  C          0.82974190       0.87262000       0.09455140
    78  C          0.67025810       0.37262000       0.90544860
    79  C          0.17025810       0.12738000       0.90544860
    80  C          0.32974190       0.62738000       0.09455140
    81  C          0.73332000       0.74632000       0.28339160
    82  C          0.76668000       0.24632000       0.71660840
    83  C          0.26668000       0.25368000       0.71660840
    84  C          0.23332000       0.75368000       0.28339160
    85  C          0.68082000       0.64622000       0.30402000
    86  C          0.81918000       0.14622000       0.69598000
    87  C          0.31918000       0.35378000       0.69598000
    88  C          0.18082000       0.85378000       0.30402000
    89  C          0.62442000       0.64513000       0.37312000
    90  C          0.87558000       0.14513000       0.62688000
    91  C          0.37558000       0.35487000       0.62688000
    92  C          0.12442000       0.85487000       0.37312000
    93  C          0.61812000       0.74203000       0.41942000
    94  C          0.88188000       0.24203000       0.58058000
    95  C          0.38188000       0.25797000       0.58058000
    96  C          0.11812000       0.75797000       0.41942000
    97  C          0.67232000       0.84042000       0.39690160
    98  C          0.82768000       0.34042000       0.60309840
    99  C          0.32768000       0.15958000       0.60309840
   100  C          0.17232000       0.65958000       0.39690160
   101  C          0.80813000       0.98293000       0.05092000
   102  C          0.69187000       0.48293000       0.94908000
   103  C          0.19187000       0.01707000       0.94908000
   104  C          0.30813000       0.51707000       0.05092000
   105  C          0.66783000       0.94773000       0.44512000
   106  C          0.83217000       0.44773000       0.55488000
   107  C          0.33217000       0.05227000       0.55488000
   108  C          0.16783000       0.55227000       0.44512000
   109  H          0.73120000       0.91220000       0.18021700
   110  H          0.76880000       0.41220000       0.81978300
   111  H          0.26880000       0.08780000       0.81978300
   112  H          0.23120000       0.58780000       0.18021700
   113  H          0.86320000       0.59620000       0.20621800
   114  H          0.63680000       0.09620000       0.79378200
   115  H          0.13680000       0.40380000       0.79378200
   116  H          0.36320000       0.90380000       0.20621800
   117  H          0.95930000       0.61930000       0.09611800
   118  H          0.54070000       0.11930000       0.90388200
   119  H          0.04070000       0.38070000       0.90388200
   120  H          0.45930000       0.88070000       0.09611800
   121  H          0.93130000       0.80020000       0.01820000
   122  H          0.56870000       0.30020000       0.98180000
   123  H          0.06870000       0.19980000       0.98180000
   124  H          0.43130000       0.69980000       0.01820000
   125  H          0.68630000       0.57930000       0.26320000
   126  H          0.81370000       0.07930000       0.73680000
   127  H          0.31370000       0.42070000       0.73680000
   128  H          0.18630000       0.92070000       0.26320000
   129  H          0.58230000       0.58230000       0.38720000
   130  H          0.91770000       0.08230000       0.61280000
   131  H          0.41770000       0.41770000       0.61280000
   132  H          0.08230000       0.91770000       0.38720000
   133  H          0.58130000       0.75020000       0.46520000
   134  H          0.91870000       0.25020000       0.53480000
   135  H          0.41870000       0.24980000       0.53480000
   136  H          0.08130000       0.74980000       0.46520000
   137  H          0.87440000       0.04130000       0.08720000
   138  H          0.62560000       0.54130000       0.91280000
   139  H          0.12560000       0.95870000       0.91280000
   140  H          0.37440000       0.45870000       0.08720000
   141  H          0.70730000       0.00720000       0.03520000
   142  H          0.79270000       0.50720000       0.96480000
   143  H          0.29270000      -0.00720000       0.96480000
   144  H          0.20730000       0.49280000       0.03520000
   145  H          0.81140000       0.98730000      -0.00920000
   146  H          0.68860000       0.48730000       0.00920000
   147  H          0.18860000       0.01270000       0.00920000
   148  H          0.31140000       0.51270000      -0.00920000
   149  H          0.65050000       0.92840000       0.49830000
   150  H          0.84950000       0.42840000       0.50170000
   151  H          0.34950000       0.07160000       0.50170000
   152  H          0.15050000       0.57160000       0.49830000
   153  H          0.76640000       0.98030000       0.46820000
   154  H          0.73360000       0.48030000       0.53180000
   155  H          0.23360000       0.01970000       0.53180000
   156  H          0.26640000       0.51970000       0.46820000
   157  H          0.60840000       0.00130000       0.40520000
   158  H          0.89160000       0.50130000       0.59480000
   159  H          0.39160000      -0.00130000       0.59480000
   160  H          0.10840000       0.49870000       0.40520000
