data_UWUKAZ03
_symmetry_space_group_name_H-M    'P1'
_symmetry_Int_Tables_number       1
loop_
_symmetry_equiv_pos_site_id
_symmetry_equiv_pos_as_xyz
1 x,y,z
_cell_length_a                   9.63029
_cell_length_b                   11.410612
_cell_length_c                   16.972814
_cell_angle_alpha                74.0397
_cell_angle_beta                 80.1166
_cell_angle_gamma                70.2296
loop_
_atom_site_label
_atom_site_type_symbol
_atom_site_fract_x
_atom_site_fract_y
_atom_site_fract_z
     1  Cl         0.43713010       0.63925200       0.58271010
     2  Cl         0.56286990       0.36074800       0.41728990
     3  Cl         0.06454010       0.33148200       0.43729010
     4  Cl         0.93545990       0.66851800       0.56270990
     5  O          0.63330500       0.73024700       0.43911400
     6  O          0.36669500       0.26975300       0.56088600
     7  O          0.89038500       0.60599700       0.37503400
     8  O          0.10961500       0.39400300       0.62496600
     9  O          0.87204500       0.23562700       0.57849400
    10  O          0.12795500       0.76437300       0.42150600
    11  O          0.60883500       0.35990700       0.64369400
    12  O          0.39116500       0.64009300       0.35630600
    13  C          0.60720500       0.55160800       0.54424400
    14  C          0.39279500       0.44839200       0.45575600
    15  C          0.67905600       0.61594800       0.47460500
    16  C          0.32094400       0.38405200       0.52539500
    17  C          0.82800600       0.54071900       0.43983500
    18  C          0.17199400       0.45928100       0.56016500
    19  C          0.89256500       0.41538800       0.47515400
    20  C          0.10743500       0.58461200       0.52484600
    21  C          0.81903600       0.34911900       0.54563500
    22  C          0.18096400       0.65088100       0.45436500
    23  C          0.66660600       0.42265900       0.58223500
    24  C          0.33339400       0.57734100       0.41776500
    25  H          0.82101400       0.68791500       0.35589000
    26  H          0.17898600       0.31208500       0.64411000
    27  Cl         0.93054990       0.69616200       0.04555010
    28  Cl         0.06945010       0.30383800       0.95444990
    29  Cl         0.55809010       0.33365200       0.94121010
    30  Cl         0.44190990       0.66634800       0.05878990
    31  O          0.14183500       0.76173700       0.90108400
    32  O          0.85816500       0.23826300       0.09891600
    33  O          0.40195500       0.60318800       0.85571400
    34  O          0.59804500       0.39681200       0.14428600
    35  O          0.35263500       0.27596700       0.08692400
    36  O          0.64736500       0.72403300       0.91307600
    37  O          0.09151500       0.42505700       0.12762400
    38  O          0.90848500       0.57494300       0.87237600
    39  C          0.10342500       0.60081800       0.01583400
    40  C          0.89657500       0.39918200       0.98416600
    41  C          0.18252600       0.65039900       0.94544500
    42  C          0.81747400       0.34960100       0.05455500
    43  C          0.33387600       0.56124900       0.91874500
    44  C          0.66612400       0.43875100       0.08125500
    45  C          0.38778600       0.43276800       0.96974500
    46  C          0.61221400       0.56723200       0.03025500
    47  C          0.30698600       0.39197800       0.03834500
    48  C          0.69301400       0.60802200       0.96165500
    49  C          0.15577600       0.47502900       0.06476500
    50  C          0.84422400       0.52497100       0.93523500
    51  H          0.28391400       0.26701500       0.13399000
    52  H          0.71608600       0.73298500       0.86601000
    53  N          0.76439500       0.15722800       0.75493400
    54  N          0.23560500       0.84277200       0.24506600
    55  N          0.71827500       0.85879300       0.74480400
    56  N          0.28172500       0.14120700       0.25519600
    57  C          0.76805600       0.03270900       0.77508500
    58  C          0.23194400       0.96729100       0.22491500
    59  C          0.83271800       0.95351900       0.84574600
    60  C          0.16728200       0.04648100       0.15425400
    61  C          0.88925900       0.00426110       0.89426600
    62  C          0.11074100      -0.00426110       0.10573400
    63  C          0.88332800       0.13098100       0.87199600
    64  C          0.11667200       0.86901900       0.12800400
    65  C          0.82172700       0.20883900       0.79968500
    66  C          0.17827300       0.79116100       0.20031500
    67  C          0.70644600       0.98420200       0.72047500
    68  C          0.29355400       0.01579800       0.27952500
    69  C          0.64272700       0.06412900       0.64886500
    70  C          0.35727300       0.93587100       0.35113500
    71  C          0.59334700       0.00862900       0.59972500
    72  C          0.40665300      -0.00862900       0.40027500
    73  C          0.60853600       0.88004100       0.62295500
    74  C          0.39146400       0.11995900       0.37704500
    75  C          0.66984600       0.80657100       0.69729500
    76  C          0.33015400       0.19342900       0.30270500
    77  C          0.81495100       0.34475120       0.77027700
    78  C          0.18504900       0.65524880       0.22972300
    79  C          0.68349800       0.66757900       0.72605600
    80  C          0.31650200       0.33242100       0.27394400
    81  H          0.84001100       0.86538800       0.85947000
    82  H          0.15998900       0.13461200       0.14053000
    83  H          0.93361200       0.95008700       0.94198000
    84  H          0.06638800       0.04991300       0.05802000
    85  H          0.92141300       0.17501400       0.90019000
    86  H          0.07858700       0.82498600       0.09981000
    87  H          0.63151100       0.15071200       0.63567000
    88  H          0.36848900       0.84928800       0.36433000
    89  H          0.55061000       0.06071100       0.55337000
    90  H          0.44939000       0.93928900       0.44663000
    91  H          0.57931200       0.83598700       0.59047000
    92  H          0.42068800       0.16401300       0.40953000
    93  H          0.87481500       0.36151600       0.72201000
    94  H          0.12518500       0.63848400       0.27799000
    95  H          0.85041300       0.36641400       0.81169000
    96  H          0.14958700       0.63358600       0.18831000
    97  H          0.71331500       0.39571500       0.76409000
    98  H          0.28668500       0.60428500       0.23591000
    99  H          0.67381200       0.63228800       0.68158000
   100  H          0.32618800       0.36771200       0.31842000
   101  H          0.78031100       0.61868800       0.74637000
   102  H          0.21968900       0.38131200       0.25363000
   103  H          0.60771300       0.65728600       0.76429000
   104  H          0.39228700       0.34271400       0.23571000
   105  H          0.71991200       0.22021200       0.70598000
   106  H          0.28008800       0.77978800       0.29402000
   107  N          0.26183500       0.15771800       0.74940400
   108  N          0.73816500       0.84228200       0.25059600
   109  N          0.19270500       0.87032200       0.74099400
   110  N          0.80729500       0.12967800       0.25900600
   111  C          0.27914600       0.03109800       0.76986500
   112  C          0.72085400       0.96890200       0.23013500
   113  C          0.35049700       0.94646900       0.83795500
   114  C          0.64950300       0.05353100       0.16204500
   115  C          0.40439700      -0.00228100       0.88764600
   116  C          0.59560300       0.00228100       0.11235400
   117  C          0.38706700       0.12665100       0.86752500
   118  C          0.61293300       0.87334900       0.13247500
   119  C          0.31633600       0.20543900       0.79713500
   120  C          0.68366400       0.79456100       0.20286500
   121  C          0.22198600       0.98313100       0.71313500
   122  C          0.77801400       0.01686900       0.28686500
   123  C          0.20151700       0.04911110       0.63183600
   124  C          0.79848300       0.95088890       0.36816400
   125  C          0.15055700      -0.00348100       0.58163500
   126  C          0.84944300       0.00348100       0.41836500
   127  C          0.12433700       0.88024900       0.61178500
   128  C          0.87566300       0.11975100       0.38821500
   129  C          0.14566600       0.81507900       0.69379500
   130  C          0.85433400       0.18492100       0.30620500
   131  C          0.29906900       0.34526110       0.77303600
   132  C          0.70093100       0.65473890       0.22696400
   133  C          0.12188900       0.68960880       0.73123700
   134  C          0.87811100       0.31039120       0.26876300
   135  H          0.36401000       0.85668800       0.84857000
   136  H          0.63599000       0.14331200       0.15143000
   137  H          0.45481100       0.94188800       0.93117000
   138  H          0.54518900       0.05811200       0.06883000
   139  H          0.41791300       0.17091400       0.89848000
   140  H          0.58208700       0.82908600       0.10152000
   141  H          0.22681100       0.12471200       0.61178000
   142  H          0.77318900       0.87528800       0.38822000
   143  H          0.13821000       0.04051100       0.52527000
   144  H          0.86179000       0.95948900       0.47473000
   145  H          0.09351200       0.83718700       0.57898000
   146  H          0.90648800       0.16281300       0.42102000
   147  H          0.19571300       0.39221300       0.77028000
   148  H          0.80428700       0.60778700       0.22972000
   149  H          0.33211300       0.37321400       0.81489000
   150  H          0.66788700       0.62678600       0.18511000
   151  H          0.35421500       0.36711600       0.72591000
   152  H          0.64578500       0.63288400       0.27409000
   153  H          0.10071700       0.65348300       0.69221100
   154  H          0.89928300       0.34651700       0.30778900
   155  H          0.05031400       0.69488500       0.77341000
   156  H          0.94968600       0.30511500       0.22659000
   157  H          0.20561700       0.63318300       0.74761000
   158  H          0.79438300       0.36681700       0.25239000
   159  H          0.19541100       0.82318800       0.79958000
   160  H          0.80458900       0.17681200       0.20042000
