data_VACTAU01
_symmetry_space_group_name_H-M    'P1'
_symmetry_Int_Tables_number       1
loop_
_symmetry_equiv_pos_site_id
_symmetry_equiv_pos_as_xyz
1 x,y,z
_cell_length_a                   5.5051
_cell_length_b                   9.1582
_cell_length_c                   24.2667
_cell_angle_alpha                90.0
_cell_angle_beta                 95.952
_cell_angle_gamma                90.0
loop_
_atom_site_label
_atom_site_type_symbol
_atom_site_fract_x
_atom_site_fract_y
_atom_site_fract_z
     1  C          0.32304000       0.26303000       0.10811000
     2  C          0.67696000       0.76303000       0.39189000
     3  C          0.67696000       0.73697000       0.89189000
     4  C          0.32304000       0.23697000       0.60811000
     5  C          0.17564000       0.17082000       0.13401000
     6  C          0.82436000       0.67082000       0.36599000
     7  C          0.82436000       0.82918000       0.86599000
     8  C          0.17564000       0.32918000       0.63401000
     9  C          0.02864000       0.22502000       0.17201000
    10  C          0.97136000       0.72502000       0.32799000
    11  C          0.97136000       0.77498000       0.82799000
    12  C          0.02864000       0.27498000       0.67201000
    13  C          0.03174000       0.37272000       0.18411000
    14  C          0.96826000       0.87272000       0.31589000
    15  C          0.96826000       0.62728000       0.81589000
    16  C          0.03174000       0.12728000       0.68411000
    17  N          0.18593000       0.61822000       0.16891000
    18  N          0.81407000       0.11822000       0.33109000
    19  N          0.81407000       0.38178000       0.83109000
    20  N          0.18593000       0.88178000       0.66891000
    21  C          0.87906000       0.80192000       0.14471000
    22  C          0.12094000       0.30192000       0.35529000
    23  C          0.12094000       0.19808000       0.85529000
    24  C          0.87906000       0.69808000       0.64471000
    25  C          0.74695000       0.89103000       0.10652000
    26  C          0.25305000       0.39103000       0.39348000
    27  C          0.25305000       0.10897000       0.89348000
    28  C          0.74695000       0.60897000       0.60652000
    29  C          0.79714000       0.88893000       0.05212000
    30  C          0.20286000       0.38893000       0.44788000
    31  C          0.20286000       0.11107000       0.94788000
    32  C          0.79714000       0.61107000       0.55212000
    33  C         -0.02476000       0.79923000       0.03601000
    34  C          0.02476000       0.29923000       0.46399000
    35  C          0.02476000       0.20077000       0.96399000
    36  C         -0.02476000       0.70077000       0.53601000
    37  C          0.30235000       0.61273000       0.04971000
    38  C          0.69765000       0.11273000       0.45029000
    39  C          0.69765000       0.38727000       0.95029000
    40  C          0.30235000       0.88727000       0.54971000
    41  C          0.46934000       0.51903000       0.08891000
    42  C          0.53066000       0.01903000       0.41109000
    43  C          0.53066000       0.48097000       0.91109000
    44  C          0.46934000       0.98097000       0.58891000
    45  C          0.32713000       0.41172000       0.11901000
    46  C          0.67287000       0.91172000       0.38099000
    47  C          0.67287000       0.58828000       0.88099000
    48  C          0.32713000       0.08828000       0.61901000
    49  C          0.18053000       0.46392000       0.15771000
    50  C          0.81947000       0.96392000       0.34229000
    51  C          0.81947000       0.53608000       0.84229000
    52  C          0.18053000       0.03608000       0.65771000
    53  C          0.06103000       0.71172000       0.12771000
    54  C          0.93897000       0.21172000       0.37229000
    55  C          0.93897000       0.28828000       0.87229000
    56  C          0.06103000       0.78828000       0.62771000
    57  C          0.11264000       0.70813000       0.07271000
    58  C          0.88736000       0.20813000       0.42729000
    59  C          0.88736000       0.29187000       0.92729000
    60  C          0.11264000       0.79187000       0.57271000
    61  C          0.33893000       0.67912000       0.21121000
    62  C          0.66107000       0.17912000       0.28879000
    63  C          0.66107000       0.32088000       0.78879000
    64  C          0.33893000       0.82088000       0.71121000
    65  O          0.35473000       0.81112000       0.21681000
    66  O          0.64527000       0.31112000       0.28319000
    67  O          0.64527000       0.18888000       0.78319000
    68  O          0.35473000       0.68888000       0.71681000
    69  N          0.46493000       0.58542000       0.24551000
    70  N          0.53507000       0.08542000       0.25449000
    71  N          0.53507000       0.41458000       0.75449000
    72  N          0.46493000       0.91458000       0.74551000
    73  H          0.42600000       0.22490000       0.08190000
    74  H          0.57400000       0.72490000       0.41810000
    75  H          0.57400000       0.77510000       0.91810000
    76  H          0.42600000       0.27510000       0.58190000
    77  H          0.17420000       0.06830000       0.12570000
    78  H          0.82580000       0.56830000       0.37430000
    79  H          0.82580000       0.93170000       0.87430000
    80  H          0.17420000       0.43170000       0.62570000
    81  H          0.92430000       0.16030000       0.18990000
    82  H          0.07570000       0.66030000       0.31010000
    83  H          0.07570000       0.83970000       0.81010000
    84  H          0.92430000       0.33970000       0.68990000
    85  H          0.93220000       0.41170000       0.21090000
    86  H          0.06780000       0.91170000       0.28910000
    87  H          0.06780000       0.58830000       0.78910000
    88  H          0.93220000       0.08830000       0.71090000
    89  H          0.84860000       0.80200000       0.18300000
    90  H          0.15140000       0.30200000       0.31700000
    91  H          0.15140000       0.19800000       0.81700000
    92  H          0.84860000       0.69800000       0.68300000
    93  H          0.61990000       0.95280000       0.11760000
    94  H          0.38010000       0.45280000       0.38240000
    95  H          0.38010000       0.04720000       0.88240000
    96  H          0.61990000       0.54720000       0.61760000
    97  H          0.70730000       0.95150000       0.02550000
    98  H          0.29270000       0.45150000       0.47450000
    99  H          0.29270000       0.04850000       0.97450000
   100  H          0.70730000       0.54850000       0.52550000
   101  H          0.00550000       0.79930000      -0.00230000
   102  H         -0.00550000       0.29930000       0.50230000
   103  H         -0.00550000       0.20070000       0.00230000
   104  H          0.00550000       0.70070000       0.49770000
   105  H          0.21780000       0.54750000       0.02330000
   106  H          0.78220000       0.04750000       0.47670000
   107  H          0.78220000       0.45250000       0.97670000
   108  H          0.21780000       0.95250000       0.52330000
   109  H          0.40260000       0.67500000       0.02970000
   110  H          0.59740000       0.17500000       0.47030000
   111  H          0.59740000       0.32500000       0.97030000
   112  H          0.40260000       0.82500000       0.52970000
   113  H          0.55880000       0.58190000       0.11530000
   114  H          0.44120000       0.08190000       0.38470000
   115  H          0.44120000       0.41810000       0.88470000
   116  H          0.55880000       0.91810000       0.61530000
   117  H          0.58450000       0.46730000       0.06900000
   118  H          0.41550000       0.96730000       0.43100000
   119  H          0.41550000       0.53270000       0.93100000
   120  H          0.58450000       0.03270000       0.56900000
   121  H          0.44680000       0.48870000       0.23990000
   122  H          0.55320000      -0.01130000       0.26010000
   123  H          0.55320000       0.51130000       0.76010000
   124  H          0.44680000       0.01130000       0.73990000
   125  H          0.56820000       0.61880000       0.27380000
   126  H          0.43180000       0.11880000       0.22620000
   127  H          0.43180000       0.38120000       0.72620000
   128  H          0.56820000       0.88120000       0.77380000
