data_VACTAU04
_symmetry_space_group_name_H-M    'P1'
_symmetry_Int_Tables_number       1
loop_
_symmetry_equiv_pos_site_id
_symmetry_equiv_pos_as_xyz
1 x,y,z
_cell_length_a                   13.2076
_cell_length_b                   5.3472
_cell_length_c                   18.8917
_cell_angle_alpha                90.0
_cell_angle_beta                 116.372
_cell_angle_gamma                90.0
loop_
_atom_site_label
_atom_site_type_symbol
_atom_site_fract_x
_atom_site_fract_y
_atom_site_fract_z
     1  C          0.77324150       0.01233000       0.04367100
     2  C          0.22675850       0.51233000       0.45632900
     3  C          0.22675850      -0.01233000       0.95632900
     4  C          0.77324150       0.48767000       0.54367100
     5  C          0.76153150       0.19963000       0.09097100
     6  C          0.23846850       0.69963000       0.40902900
     7  C          0.23846850       0.80037000       0.90902900
     8  C          0.76153150       0.30037000       0.59097100
     9  H          0.68880000       0.26630000       0.07830000
    10  H          0.31120000       0.76630000       0.42170000
    11  H          0.31120000       0.73370000       0.92170000
    12  H          0.68880000       0.23370000       0.57830000
    13  C          0.85463150       0.28924000       0.15608100
    14  C          0.14536850       0.78924000       0.34391900
    15  C          0.14536850       0.71076000       0.84391900
    16  C          0.85463150       0.21076000       0.65608100
    17  H          0.84580000       0.41400000       0.18870000
    18  H          0.15420000       0.91400000       0.31130000
    19  H          0.15420000       0.58600000       0.81130000
    20  H          0.84580000       0.08600000       0.68870000
    21  C          0.96094160       0.19573000       0.17339110
    22  C          0.03905840       0.69573000       0.32660890
    23  C          0.03905840       0.80427000       0.82660890
    24  C          0.96094160       0.30427000       0.67339110
    25  H          0.02560000       0.25750000       0.21760000
    26  H          0.97440000       0.75750000       0.28240000
    27  H          0.97440000       0.74250000       0.78240000
    28  H          0.02560000       0.24250000       0.71760000
    29  C          0.97231160       0.01213000       0.12597100
    30  C          0.02768840       0.51213000       0.37402900
    31  C          0.02768840      -0.01213000       0.87402900
    32  C          0.97231160       0.48787000       0.62597100
    33  H          0.04570000       0.95040000       0.13830000
    34  H          0.95430000       0.45040000       0.36170000
    35  H          0.95430000       0.04960000       0.86170000
    36  H          0.04570000       0.54960000       0.63830000
    37  C          0.87968150       0.91367000       0.06045100
    38  C          0.12031850       0.41367000       0.43954900
    39  C          0.12031850       0.08633000       0.93954900
    40  C          0.87968150       0.58633000       0.56045100
    41  C          0.90431150       0.70997000       0.01426100
    42  C          0.09568850       0.20997000       0.48573900
    43  C          0.09568850       0.29003000       0.98573900
    44  C          0.90431150       0.79003000       0.51426100
    45  H          0.94650000       0.57580000       0.05200000
    46  H          0.05350000       0.07580000       0.44800000
    47  H          0.05350000       0.42420000       0.94800000
    48  H          0.94650000       0.92420000       0.55200000
    49  H          0.95570000       0.78150000      -0.00580000
    50  H          0.04430000       0.28150000       0.50580000
    51  H          0.04430000       0.21850000       0.00580000
    52  H          0.95570000       0.71850000       0.49420000
    53  C          0.80518150       0.58727000       0.94424900
    54  C          0.19481850       0.08727000       0.55575100
    55  C          0.19481850       0.41273000       0.05575100
    56  C          0.80518150       0.91273000       0.44424900
    57  H          0.83490000       0.45960000       0.92040000
    58  H          0.16510000       0.95960000       0.57960000
    59  H          0.16510000       0.54040000       0.07960000
    60  H          0.83490000       0.04040000       0.42040000
    61  H          0.75600000       0.50140000       0.96370000
    62  H          0.24400000       0.00140000       0.53630000
    63  H          0.24400000       0.49860000       0.03630000
    64  H          0.75600000      -0.00140000       0.46370000
    65  C          0.73608140       0.77317000       0.88204900
    66  C          0.26391860       0.27317000       0.61795100
    67  C          0.26391860       0.22683000       0.11795100
    68  C          0.73608140       0.72683000       0.38204900
    69  C          0.73414150       0.78556000       0.80786900
    70  C          0.26585850       0.28556000       0.69213100
    71  C          0.26585850       0.21444000       0.19213100
    72  C          0.73414150       0.71444000       0.30786900
    73  H          0.77670000       0.66900000       0.79400000
    74  H          0.22330000       0.16900000       0.70600000
    75  H          0.22330000       0.33100000       0.20600000
    76  H          0.77670000       0.83100000       0.29400000
    77  C          0.67036150       0.96756000       0.75389890
    78  C          0.32963850       0.46756000       0.74610110
    79  C          0.32963850       0.03244000       0.24610110
    80  C          0.67036150       0.53244000       0.25389890
    81  H          0.66990000      -0.02530000       0.70350000
    82  H          0.33010000       0.47470000       0.79650000
    83  H          0.33010000       0.02530000       0.29650000
    84  H          0.66990000       0.52530000       0.20350000
    85  C          0.60757160       0.13834000       0.77278890
    86  C          0.39242840       0.63834000       0.72721110
    87  C          0.39242840       0.86166000       0.22721110
    88  C          0.60757160       0.36166000       0.27278890
    89  H          0.56400000       0.26190000       0.73560000
    90  H          0.43600000       0.76190000       0.76440000
    91  H          0.43600000       0.73810000       0.26440000
    92  H          0.56400000       0.23810000       0.23560000
    93  C          0.60856150       0.12803000       0.84639900
    94  C          0.39143850       0.62803000       0.65360100
    95  C          0.39143850       0.87197000       0.15360100
    96  C          0.60856150       0.37197000       0.34639900
    97  H          0.56630000       0.24550000       0.86020000
    98  H          0.43370000       0.74550000       0.63980000
    99  H          0.43370000       0.75450000       0.13980000
   100  H          0.56630000       0.25450000       0.36020000
   101  C          0.67148150       0.94527000       0.89965900
   102  C          0.32851850       0.44527000       0.60034100
   103  C          0.32851850       0.05473000       0.10034100
   104  C          0.67148150       0.55473000       0.39965900
   105  C          0.59446140       0.77667000       0.98420900
   106  C          0.40553860       0.27667000       0.51579100
   107  C          0.40553860       0.22333000       0.01579100
   108  C          0.59446140       0.72333000       0.48420900
   109  N          0.67287120       0.93007000       0.97635200
   110  N          0.32712880       0.43007000       0.52364800
   111  N          0.32712880       0.06993000       0.02364800
   112  N          0.67287120       0.56993000       0.47635200
   113  N          0.59931130       0.75337000       0.05591900
   114  N          0.40068870       0.25337000       0.44408100
   115  N          0.40068870       0.24663000       0.94408100
   116  N          0.59931130       0.74663000       0.55591900
   117  O          0.52238100       0.66388000       0.92525300
   118  O          0.47761900       0.16388000       0.57474700
   119  O          0.47761900       0.33612000       0.07474700
   120  O          0.52238100       0.83612000       0.42525300
   121  H          0.55151400       0.64070000       0.05991200
   122  H          0.44848600       0.14070000       0.44008800
   123  H          0.44848600       0.35930000       0.94008800
   124  H          0.55151400       0.85930000       0.55991200
   125  H          0.64841500       0.84760000       0.09539000
   126  H          0.35158500       0.34760000       0.40461000
   127  H          0.35158500       0.15240000       0.90461000
   128  H          0.64841500       0.65240000       0.59539000
