data_VACTAU02
_symmetry_space_group_name_H-M    'P1'
_symmetry_Int_Tables_number       1
loop_
_symmetry_equiv_pos_site_id
_symmetry_equiv_pos_as_xyz
1 x,y,z
_cell_length_a                   9.05924
_cell_length_b                   10.31565
_cell_length_c                   25.053412
_cell_angle_alpha                90.0
_cell_angle_beta                 90.0
_cell_angle_gamma                90.0
loop_
_atom_site_label
_atom_site_type_symbol
_atom_site_fract_x
_atom_site_fract_y
_atom_site_fract_z
     1  C          0.04963150       0.45082130       0.37391500
     2  C          0.45036850       0.54917870       0.87391500
     3  C          0.95036850       0.95082130       0.12608500
     4  C          0.54963150       0.04917870       0.62608500
     5  C          0.95036850       0.54917870       0.62608500
     6  C          0.54963150       0.45082130       0.12608500
     7  C          0.04963150       0.04917870       0.87391500
     8  C          0.45036850       0.95082130       0.37391500
     9  C          0.14657150       0.54877140       0.38949500
    10  C          0.35342850       0.45122860       0.88949500
    11  C          0.85342850       0.04877140       0.11050500
    12  C          0.64657150       0.95122860       0.61050500
    13  C          0.85342850       0.45122860       0.61050500
    14  C          0.64657150       0.54877140       0.11050500
    15  C          0.14657150       0.95122860       0.88949500
    16  C          0.35342850       0.04877140       0.38949500
    17  H          0.15360000       0.57140000       0.42620000
    18  H          0.34640000       0.42860000       0.92620000
    19  H          0.84640000       0.07140000       0.07380000
    20  H          0.65360000       0.92860000       0.57380000
    21  H          0.84640000       0.42860000       0.57380000
    22  H          0.65360000       0.57140000       0.07380000
    23  H          0.15360000       0.92860000       0.92620000
    24  H          0.34640000       0.07140000       0.42620000
    25  C          0.23264160       0.61353140       0.35245600
    26  C          0.26735840       0.38646860       0.85245600
    27  C          0.76735840       0.11353140       0.14754400
    28  C          0.73264160       0.88646860       0.64754400
    29  C          0.76735840       0.38646860       0.64754400
    30  C          0.73264160       0.61353140       0.14754400
    31  C          0.23264160       0.88646860       0.85245600
    32  C          0.26735840       0.11353140       0.35245600
    33  H          0.30000000       0.67870000       0.36360000
    34  H          0.20000000       0.32130000       0.86360000
    35  H          0.70000000       0.17870000       0.13640000
    36  H          0.80000000       0.82130000       0.63640000
    37  H          0.70000000       0.32130000       0.63640000
    38  H          0.80000000       0.67870000       0.13640000
    39  H          0.30000000       0.82130000       0.86360000
    40  H          0.20000000       0.17870000       0.36360000
    41  C          0.21937170       0.58193150       0.29865600
    42  C          0.28062830       0.41806850       0.79865600
    43  C          0.78062830       0.08193150       0.20134400
    44  C          0.71937170       0.91806850       0.70134400
    45  C          0.78062830       0.41806850       0.70134400
    46  C          0.71937170       0.58193150       0.20134400
    47  C          0.21937170       0.91806850       0.79865600
    48  C          0.28062830       0.08193150       0.29865600
    49  H          0.27690000       0.62620000       0.27270000
    50  H          0.22310000       0.37380000       0.77270000
    51  H          0.72310000       0.12620000       0.22730000
    52  H          0.77690000       0.87380000       0.72730000
    53  H          0.72310000       0.37380000       0.72730000
    54  H          0.77690000       0.62620000       0.22730000
    55  H          0.27690000       0.87380000       0.77270000
    56  H          0.22310000       0.12620000       0.27270000
    57  C          0.12199160       0.48575150       0.28318600
    58  C          0.37800840       0.51424850       0.78318600
    59  C          0.87800840       0.98575150       0.21681400
    60  C          0.62199160       0.01424850       0.71681400
    61  C          0.87800840       0.51424850       0.71681400
    62  C          0.62199160       0.48575150       0.21681400
    63  C          0.12199160       0.01424850       0.78318600
    64  C          0.37800840       0.98575150       0.28318600
    65  H          0.11290000       0.46610000       0.24630000
    66  H          0.38710000       0.53390000       0.74630000
    67  H          0.88710000       0.96610000       0.25370000
    68  H          0.61290000       0.03390000       0.75370000
    69  H          0.88710000       0.53390000       0.75370000
    70  H          0.61290000       0.46610000       0.25370000
    71  H          0.11290000       0.03390000       0.74630000
    72  H          0.38710000       0.96610000       0.24630000
    73  C          0.03620150       0.41617130       0.31986500
    74  C          0.46379850       0.58382870       0.81986500
    75  C          0.96379850       0.91617130       0.18013500
    76  C          0.53620150       0.08382870       0.68013500
    77  C          0.96379850       0.58382870       0.68013500
    78  C          0.53620150       0.41617130       0.18013500
    79  C          0.03620150       0.08382870       0.81986500
    80  C          0.46379850       0.91617130       0.31986500
    81  C          0.93850840       0.30985140       0.29711500
    82  C          0.56149160       0.69014860       0.79711500
    83  C          0.06149160       0.80985140       0.20288500
    84  C          0.43850840       0.19014860       0.70288500
    85  C          0.06149160       0.69014860       0.70288500
    86  C          0.43850840       0.30985140       0.20288500
    87  C          0.93850840       0.19014860       0.79711500
    88  C          0.56149160       0.80985140       0.29711500
    89  H          0.00130000       0.25240000       0.27510000
    90  H          0.49870000       0.74760000       0.77510000
    91  H         -0.00130000       0.75240000       0.22490000
    92  H          0.50130000       0.24760000       0.72490000
    93  H         -0.00130000       0.74760000       0.72490000
    94  H          0.50130000       0.25240000       0.22490000
    95  H          0.00130000       0.24760000       0.77510000
    96  H          0.49870000       0.75240000       0.27510000
    97  H          0.86610000       0.35100000       0.27290000
    98  H          0.63390000       0.64900000       0.77290000
    99  H          0.13390000       0.85100000       0.22710000
   100  H          0.36610000       0.14900000       0.72710000
   101  H          0.13390000       0.64900000       0.72710000
   102  H          0.36610000       0.35100000       0.22710000
   103  H          0.86610000       0.14900000       0.77290000
   104  H          0.63390000       0.85100000       0.27290000
   105  C          0.85308840       0.22474140       0.33658500
   106  C          0.64691160       0.77525860       0.83658500
   107  C          0.14691160       0.72474140       0.16341500
   108  C          0.35308840       0.27525860       0.66341500
   109  C          0.14691160       0.77525860       0.66341500
   110  C          0.35308840       0.22474140       0.16341500
   111  C          0.85308840       0.27525860       0.83658500
   112  C          0.64691160       0.72474140       0.33658500
   113  H          0.79840000       0.15700000       0.31670000
   114  H          0.70160000       0.84300000       0.81670000
   115  H          0.20160000       0.65700000       0.18330000
   116  H          0.29840000       0.34300000       0.68330000
   117  H          0.20160000       0.84300000       0.68330000
   118  H          0.29840000       0.15700000       0.18330000
   119  H          0.79840000       0.34300000       0.81670000
   120  H          0.70160000       0.65700000       0.31670000
   121  H          0.92340000       0.18110000       0.36090000
   122  H          0.57660000       0.81890000       0.86090000
   123  H          0.07660000       0.68110000       0.13910000
   124  H          0.42340000       0.31890000       0.63910000
   125  H          0.07660000       0.81890000       0.63910000
   126  H          0.42340000       0.18110000       0.13910000
   127  H          0.92340000       0.31890000       0.86090000
   128  H          0.57660000       0.68110000       0.36090000
   129  C          0.74629840       0.30443130       0.36874500
   130  C          0.75370160       0.69556870       0.86874500
   131  C          0.25370160       0.80443130       0.13125500
   132  C          0.24629840       0.19556870       0.63125500
   133  C          0.25370160       0.69556870       0.63125500
   134  C          0.24629840       0.30443130       0.13125500
   135  C          0.74629840       0.19556870       0.86874500
   136  C          0.75370160       0.80443130       0.36874500
   137  C          0.59468840       0.30161140       0.36045500
   138  C          0.90531160       0.69838860       0.86045500
   139  C          0.40531160       0.80161140       0.13954500
   140  C          0.09468840       0.19838860       0.63954500
   141  C          0.40531160       0.69838860       0.63954500
   142  C          0.09468840       0.30161140       0.13954500
   143  C          0.59468840       0.19838860       0.86045500
   144  C          0.90531160       0.80161140       0.36045500
   145  H          0.55430000       0.24400000       0.33470000
   146  H          0.94570000       0.75600000       0.83470000
   147  H          0.44570000       0.74400000       0.16530000
   148  H          0.05430000       0.25600000       0.66530000
   149  H          0.44570000       0.75600000       0.66530000
   150  H          0.05430000       0.24400000       0.16530000
   151  H          0.55430000       0.25600000       0.83470000
   152  H          0.94570000       0.74400000       0.33470000
   153  C          0.50126840       0.38233140       0.38948500
   154  C         -0.00126840       0.61766860       0.88948500
   155  C          0.49873160       0.88233140       0.11051500
   156  C          0.00126840       0.11766860       0.61051500
   157  C          0.49873160       0.61766860       0.61051500
   158  C          0.00126840       0.38233140       0.11051500
   159  C          0.50126840       0.11766860       0.88948500
   160  C         -0.00126840       0.88233140       0.38948500
   161  H          0.39770000       0.37940000       0.38360000
   162  H          0.10230000       0.62060000       0.88360000
   163  H          0.60230000       0.87940000       0.11640000
   164  H          0.89770000       0.12060000       0.61640000
   165  H          0.60230000       0.62060000       0.61640000
   166  H          0.89770000       0.37940000       0.11640000
   167  H          0.39770000       0.12060000       0.88360000
   168  H          0.10230000       0.87940000       0.38360000
   169  C          0.55927840       0.46712130       0.42704500
   170  C          0.94072160       0.53287870       0.92704500
   171  C          0.44072160       0.96712130       0.07295500
   172  C          0.05927840       0.03287870       0.57295500
   173  C          0.44072160       0.53287870       0.57295500
   174  C          0.05927840       0.46712130       0.07295500
   175  C          0.55927840       0.03287870       0.92704500
   176  C          0.94072160       0.96712130       0.42704500
   177  H          0.49530000       0.52240000       0.44660000
   178  H          0.00470000       0.47760000       0.94660000
   179  H          0.50470000       0.02240000       0.05340000
   180  H         -0.00470000       0.97760000       0.55340000
   181  H          0.50470000       0.47760000       0.55340000
   182  H         -0.00470000       0.52240000       0.05340000
   183  H          0.49530000       0.97760000       0.94660000
   184  H          0.00470000       0.02240000       0.44660000
   185  C          0.71124840       0.47151130       0.43614500
   186  C          0.78875160       0.52848870       0.93614500
   187  C          0.28875160       0.97151130       0.06385500
   188  C          0.21124840       0.02848870       0.56385500
   189  C          0.28875160       0.52848870       0.56385500
   190  C          0.21124840       0.47151130       0.06385500
   191  C          0.71124840       0.02848870       0.93614500
   192  C          0.78875160       0.97151130       0.43614500
   193  H          0.75130000       0.52930000       0.46180000
   194  H          0.74870000       0.47070000       0.96180000
   195  H          0.24870000       0.02930000       0.03820000
   196  H          0.25130000       0.97070000       0.53820000
   197  H          0.24870000       0.47070000       0.53820000
   198  H          0.25130000       0.52930000       0.03820000
   199  H          0.75130000       0.97070000       0.96180000
   200  H          0.74870000       0.02930000       0.46180000
   201  C          0.80303850       0.38982130       0.40696500
   202  C          0.69696150       0.61017870       0.90696500
   203  C          0.19696150       0.88982130       0.09303500
   204  C          0.30303850       0.11017870       0.59303500
   205  C          0.19696150       0.61017870       0.59303500
   206  C          0.30303850       0.38982130       0.09303500
   207  C          0.80303850       0.11017870       0.90696500
   208  C          0.69696150       0.88982130       0.40696500
   209  C          0.02724160       0.32816130       0.45697500
   210  C          0.47275840       0.67183870       0.95697500
   211  C          0.97275840       0.82816130       0.04302500
   212  C          0.52724160       0.17183870       0.54302500
   213  C          0.97275840       0.67183870       0.54302500
   214  C          0.52724160       0.32816130       0.04302500
   215  C          0.02724160       0.17183870       0.95697500
   216  C          0.47275840       0.82816130       0.45697500
   217  N          0.96052880       0.39139110       0.41466400
   218  N          0.53947120       0.60860890       0.91466400
   219  N          0.03947120       0.89139110       0.08533600
   220  N          0.46052880       0.10860890       0.58533600
   221  N          0.03947120       0.60860890       0.58533600
   222  N          0.46052880       0.39139110       0.08533600
   223  N          0.96052880       0.10860890       0.91466400
   224  N          0.53947120       0.89139110       0.41466400
   225  N          0.93540850       0.27514130       0.49331500
   226  N          0.56459150       0.72485870       0.99331500
   227  N          0.06459150       0.77514130       0.00668500
   228  N          0.43540850       0.22485870       0.50668500
   229  N          0.06459150       0.72485870       0.50668500
   230  N          0.43540850       0.27514130       0.00668500
   231  N          0.93540850       0.22485870       0.99331500
   232  N          0.56459150       0.77514130       0.49331500
   233  H          0.97958100       0.23251800       0.51967000
   234  H          0.52041900       0.76748200       0.01967000
   235  H          0.02041900       0.73251800       0.98033000
   236  H          0.47958100       0.26748200       0.48033000
   237  H          0.02041900       0.76748200       0.48033000
   238  H          0.47958100       0.23251800       0.98033000
   239  H          0.97958100       0.26748200       0.01967000
   240  H          0.52041900       0.73251800       0.51967000
   241  H          0.83480000       0.27171700       0.48987000
   242  H          0.66520000       0.72828300       0.98987000
   243  H          0.16520000       0.77171700       0.01013000
   244  H          0.33480000       0.22828300       0.51013000
   245  H          0.16520000       0.72828300       0.51013000
   246  H          0.33480000       0.27171700       0.01013000
   247  H          0.83480000       0.22828300       0.98987000
   248  H          0.66520000       0.77171700       0.48987000
   249  O          0.16274110       0.32075100       0.46096400
   250  O          0.33725890       0.67924900       0.96096400
   251  O          0.83725890       0.82075100       0.03903600
   252  O          0.66274110       0.17924900       0.53903600
   253  O          0.83725890       0.67924900       0.53903600
   254  O          0.66274110       0.32075100       0.03903600
   255  O          0.16274110       0.17924900       0.96096400
   256  O          0.33725890       0.82075100       0.46096400
