data_VARYES02
_symmetry_space_group_name_H-M    'P1'
_symmetry_Int_Tables_number       1
loop_
_symmetry_equiv_pos_site_id
_symmetry_equiv_pos_as_xyz
1 x,y,z
_cell_length_a                   6.90572
_cell_length_b                   12.172701
_cell_length_c                   8.65122
_cell_angle_alpha                90.0
_cell_angle_beta                 90.0
_cell_angle_gamma                90.0
loop_
_atom_site_label
_atom_site_type_symbol
_atom_site_fract_x
_atom_site_fract_y
_atom_site_fract_z
     1  P          0.17142100       0.63754600       0.90786800
     2  P          0.32857900       0.36245400       0.40786800
     3  P          0.82857900       0.13754600       0.09213200
     4  P          0.67142100       0.86245400       0.59213200
     5  P          0.82857900       0.36245400       0.09213200
     6  P          0.67142100       0.63754600       0.59213200
     7  P          0.17142100       0.86245400       0.90786800
     8  P          0.32857900       0.13754600       0.40786800
     9  P          0.88924850       0.75000000       0.06196110
    10  P          0.61075150       0.25000000       0.56196110
    11  P          0.11075150       0.25000000       0.93803890
    12  P          0.38924850       0.75000000       0.43803890
    13  F          0.13542000       0.56621130       0.76562000
    14  F          0.36458000       0.43378870       0.26562000
    15  F          0.86458000       0.06621130       0.23438000
    16  F          0.63542000       0.93378870       0.73438000
    17  F          0.86458000       0.43378870       0.23438000
    18  F          0.63542000       0.56621130       0.73438000
    19  F          0.13542000       0.93378870       0.76562000
    20  F          0.36458000       0.06621130       0.26562000
    21  F          0.32732000       0.56844140      -0.01408000
    22  F          0.17268000       0.43155860       0.48592000
    23  F          0.67268000       0.06844140       0.01408000
    24  F          0.82732000       0.93155860       0.51408000
    25  F          0.67268000       0.43155860       0.01408000
    26  F          0.82732000       0.56844140       0.51408000
    27  F          0.32732000       0.93155860      -0.01408000
    28  F          0.17268000       0.06844140       0.48592000
    29  F          0.67597000       0.75000000       0.01753000
    30  F          0.82403000       0.25000000       0.51753000
    31  F          0.32403000       0.25000000       0.98247000
    32  F          0.17597000       0.75000000       0.48247000
    33  F          0.86246000       0.75000000       0.23773000
    34  F          0.63754000       0.25000000       0.73773000
    35  F          0.13754000       0.25000000       0.76227000
    36  F          0.36246000       0.75000000       0.26227000
    37  N         -0.01434000       0.63907180       0.01143000
    38  N          0.51434000       0.36092820       0.51143000
    39  N          0.01434000       0.13907180      -0.01143000
    40  N          0.48566000       0.86092820       0.48857000
    41  N          0.01434000       0.36092820      -0.01143000
    42  N          0.48566000       0.63907180       0.48857000
    43  N         -0.01434000       0.86092820       0.01143000
    44  N          0.51434000       0.13907180       0.51143000
    45  N          0.26305000       0.75000000       0.85464000
    46  N          0.23695000       0.25000000       0.35464000
    47  N          0.73695000       0.25000000       0.14536000
    48  N          0.76305000       0.75000000       0.64536000
