data_VEGMAV06
_symmetry_space_group_name_H-M    'P1'
_symmetry_Int_Tables_number       1
loop_
_symmetry_equiv_pos_site_id
_symmetry_equiv_pos_as_xyz
1 x,y,z
_cell_length_a                   8.62479
_cell_length_b                   8.63319
_cell_length_c                   18.8102
_cell_angle_alpha                79.126517
_cell_angle_beta                 79.200817
_cell_angle_gamma                63.412015
loop_
_atom_site_label
_atom_site_type_symbol
_atom_site_fract_x
_atom_site_fract_y
_atom_site_fract_z
     1  O          0.31702000       0.20552000       0.63789900
     2  O          0.68298000       0.79448000       0.36210100
     3  O          0.27672000       0.43382000       0.55449800
     4  O          0.72328000       0.56618000       0.44550200
     5  N          0.16653000       0.91252000       0.36695100
     6  N          0.83347000       0.08748000       0.63304900
     7  C          0.31803000       0.34863000       0.62329120
     8  C          0.68197000       0.65137000       0.37670880
     9  C          0.35483000       0.43853000       0.67024120
    10  C          0.64517000       0.56147000       0.32975880
    11  H          0.37879300       0.38511400       0.71837500
    12  H          0.62120700       0.61488600       0.28162500
    13  C          0.35663000       0.59593000       0.64853120
    14  C          0.64337000       0.40407000       0.35146880
    15  C          0.39063000       0.68993000       0.69911120
    16  C          0.60937000       0.31007000       0.30088880
    17  H          0.40204700       0.62290800       0.74762400
    18  H          0.59795300       0.37709200       0.25237600
    19  H          0.29320500       0.80562100       0.70238000
    20  H          0.70679500       0.19437900       0.29762000
    21  H          0.49885800       0.70245500       0.68031000
    22  H          0.50114200       0.29754500       0.31969000
    23  C          0.31983000       0.67873000       0.57562120
    24  C          0.68017000       0.32127000       0.42437880
    25  C          0.27593000       0.59613000       0.53097120
    26  C          0.72407000       0.40387000       0.46902880
    27  C          0.22473000       0.66873000       0.46209120
    28  C          0.77527000       0.33127000       0.53790880
    29  C          0.21653000       0.83643000       0.43572110
    30  C          0.78347000       0.16357000       0.56427890
    31  C          0.26273000       0.92333000       0.47910120
    32  C          0.73727000       0.07667000       0.52089880
    33  C          0.31333000       0.84353000       0.54712120
    34  C          0.68667000       0.15647000       0.45287880
    35  H          0.34479400       0.90252700       0.57563700
    36  H          0.65520600       0.09747300       0.42436300
    37  C          0.25173000       0.10313000       0.45194120
    38  C          0.74827000       0.89687000       0.54805880
    39  H          0.34879600       0.11466900       0.46781800
    40  H          0.65120400       0.88533100       0.53218200
    41  H          0.14060600       0.19095500       0.47366000
    42  H          0.85939400       0.80904500       0.52634000
    43  C          0.26123000       0.13863000       0.36923120
    44  C          0.73877000       0.86137000       0.63076880
    45  H          0.23546500       0.26291000       0.35336900
    46  H          0.76453500       0.73709000       0.64663100
    47  H          0.38013500       0.06636000       0.34708600
    48  H          0.61986500       0.93364000       0.65291400
    49  C          0.12953000       0.09533000       0.34450120
    50  C          0.87047000       0.90467000       0.65549880
    51  H          0.01051900       0.16980900       0.36586000
    52  H          0.98948100       0.83019100       0.63414000
    53  H          0.13376300       0.11959000       0.29076000
    54  H          0.86623700       0.88041000       0.70924000
    55  C          0.06843000       0.84883000       0.33507120
    56  C          0.93157000       0.15117000       0.66492880
    57  H          0.05813000       0.89996000       0.28348000
    58  H          0.94187000       0.10004000       0.71652000
    59  H          0.94918200       0.88527200       0.36145100
    60  H          0.05081800       0.11472800       0.63854900
    61  C          0.15893000       0.65163000       0.33938120
    62  C          0.84107000       0.34837000       0.66061880
    63  H          0.27647500       0.61512000       0.31145400
    64  H          0.72352500       0.38488000       0.68854600
    65  H          0.09109400       0.60946500       0.31751200
    66  H          0.90890600       0.39053500       0.68248800
    67  C          0.17523000       0.57113000       0.41889120
    68  C          0.82477000       0.42887000       0.58110880
    69  H          0.06246900       0.57008600       0.44178000
    70  H          0.93753100       0.42991400       0.55822000
    71  H          0.26462300       0.44861600       0.42044400
    72  H          0.73537700       0.55138400       0.57955600
    73  O          0.29482000       0.67052000       0.88296100
    74  O          0.70518000       0.32948000       0.11703900
    75  O          0.05652000       0.73302000       0.96167100
    76  O          0.94348000       0.26698000       0.03832900
    77  N          0.57643000       0.85193000       0.14746100
    78  N          0.42357000       0.14807000       0.85253900
    79  C          0.14933000       0.67563000       0.89600880
    80  C          0.85067000       0.32437000       0.10399120
    81  C          0.06143000       0.63473000       0.85003870
    82  C          0.93857000       0.36527000       0.14996130
    83  H          0.11911600       0.60190400       0.80337200
    84  H          0.88088400       0.39809600       0.19662800
    85  C          0.90013000       0.64063000       0.86988880
    86  C          0.09987000       0.35937000       0.13011120
    87  C          0.81034000       0.60073000       0.81943860
    88  C          0.18966000       0.39927000       0.18056140
    89  H          0.88960100       0.56356900       0.77498600
    90  H          0.11039900       0.43643100       0.22501400
    91  H          0.70531800       0.70539100       0.80678300
    92  H          0.29468200       0.29460900       0.19321700
    93  H          0.77730400       0.50699600       0.84363900
    94  H          0.22269600       0.49300400       0.15636100
    95  C          0.81063000       0.69133000       0.94080880
    96  C          0.18937000       0.30867000       0.05919120
    97  C          0.89273000       0.73833000       0.98458880
    98  C          0.10727000       0.26167000       0.01541120
    99  C          0.81873000       0.79623000       0.05186120
   100  C          0.18127000       0.20377000       0.94813880
   101  C          0.65143000       0.80263000       0.07872120
   102  C          0.34857000       0.19737000       0.92127880
   103  C          0.56443000       0.75333000       0.03582120
   104  C          0.43557000       0.24667000       0.96417880
   105  C          0.64433000       0.69963000       0.96853880
   106  C          0.35567000       0.30037000       0.03146120
   107  H          0.58554400       0.66739700       0.94019000
   108  H          0.41445600       0.33260300       0.05981000
   109  C          0.38453000       0.76203000       0.06362120
   110  C          0.61547000       0.23797000       0.93637880
   111  H          0.37294800       0.66526800       0.04757800
   112  H          0.62705200       0.33473200       0.95242200
   113  H          0.29482200       0.87341100       0.04296300
   114  H          0.70517800       0.12658900       0.95703700
   115  C          0.35533000       0.74903000       0.14611120
   116  C          0.64467000       0.25097000       0.85388880
   117  H          0.23263500       0.76993300       0.16335900
   118  H          0.76736500       0.23006700       0.83664100
   119  H          0.43201200       0.63031000       0.16698000
   120  H          0.56798800       0.36969000       0.83302000
   121  C          0.39503000       0.88203000       0.17131130
   122  C          0.60497000       0.11797000       0.82868870
   123  H          0.31646500       0.00069300       0.15121900
   124  H          0.68353500      -0.00069300       0.84878100
   125  H          0.37357300       0.87451000       0.22515900
   126  H          0.62642700       0.12549000       0.77484100
   127  C          0.63853000       0.95263000       0.17921130
   128  C          0.36147000       0.04737000       0.82078870
   129  H          0.58894600       0.96113200       0.23100300
   130  H          0.41105400       0.03886800       0.76899700
   131  H          0.59918700       0.07217000       0.15308900
   132  H          0.40081300       0.92783000       0.84691100
   133  C          0.83623000       0.86493000       0.17366130
   134  C          0.16377000       0.13507000       0.82633870
   135  H          0.87524300       0.74660300       0.20104500
   136  H          0.12475700       0.25339700       0.79895500
   137  H          0.87778600       0.93311700       0.19547300
   138  H          0.12221400       0.06688300       0.80452700
   139  C          0.91353000       0.85203000       0.09394120
   140  C          0.08647000       0.14797000       0.90605880
   141  H          0.90834000       0.96696400       0.07090500
   142  H          0.09166000       0.03303600       0.92909500
   143  H          0.03785400       0.76702400       0.09149900
   144  H          0.96214600       0.23297600       0.90850100
