data_VEGMAV03
_symmetry_space_group_name_H-M    'P1'
_symmetry_Int_Tables_number       1
loop_
_symmetry_equiv_pos_site_id
_symmetry_equiv_pos_as_xyz
1 x,y,z
_cell_length_a                   8.57553
_cell_length_b                   10.16273
_cell_length_c                   14.26762
_cell_angle_alpha                90.0
_cell_angle_beta                 95.2492
_cell_angle_gamma                90.0
loop_
_atom_site_label
_atom_site_type_symbol
_atom_site_fract_x
_atom_site_fract_y
_atom_site_fract_z
     1  O          0.62321300       0.54842200       0.82793800
     2  O          0.87678700       0.04842200       0.67206200
     3  O          0.37678700       0.45157800       0.17206200
     4  O          0.12321300       0.95157800       0.32793800
     5  O          0.56277400       0.65946300       0.69642800
     6  O          0.93722600       0.15946300       0.80357200
     7  O          0.43722600       0.34053700       0.30357200
     8  O          0.06277400       0.84053700       0.19642800
     9  C          0.63367200       0.66057200       0.77464900
    10  C          0.86632800       0.16057200       0.72535100
    11  C          0.36632800       0.33942800       0.22535100
    12  C          0.13367200       0.83942800       0.27464900
    13  C          0.72648200       0.76777200       0.81605800
    14  C          0.77351800       0.26777200       0.68394200
    15  C          0.27351800       0.23222800       0.18394200
    16  C          0.22648200       0.73222800       0.31605800
    17  H          0.73455000       0.85424000       0.77238000
    18  H          0.76545000       0.35424000       0.72762000
    19  H          0.26545000       0.14576000       0.22762000
    20  H          0.23455000       0.64576000       0.27238000
    21  C          0.80212200       0.75924200       0.90460800
    22  C          0.69787800       0.25924200       0.59539200
    23  C          0.19787800       0.24075800       0.09539200
    24  C          0.30212200       0.74075800       0.40460800
    25  C          0.86283200       0.62046200       0.04932100
    26  C          0.63716800       0.12046200       0.45067900
    27  C          0.13716800       0.37953800       0.95067900
    28  C          0.36283200       0.87953800       0.54932100
    29  H          0.93445000       0.69943000       0.08102000
    30  H          0.56555000       0.19943000       0.41898000
    31  H          0.06555000       0.30057000       0.91898000
    32  H          0.43445000       0.80057000       0.58102000
    33  C          0.84666200       0.50407200       0.09709100
    34  C          0.65333800       0.00407200       0.40290900
    35  C          0.15333800       0.49592800       0.90290900
    36  C          0.34666200      -0.00407200       0.59709100
    37  C          0.75060200       0.40135200       0.05468100
    38  C          0.74939800       0.90135200       0.44531900
    39  C          0.24939800       0.59864800       0.94531900
    40  C          0.25060200       0.09864800       0.55468100
    41  C          0.67611200       0.41815200       0.96288900
    42  C          0.82388800       0.91815200       0.53711100
    43  C          0.32388800       0.58184800       0.03711100
    44  C          0.17611200       0.08184800       0.46288900
    45  C          0.69769200       0.53672200       0.91720900
    46  C          0.80230800       0.03672200       0.58279100
    47  C          0.30230800       0.46327800       0.08279100
    48  C          0.19769200       0.96327800       0.41720900
    49  C          0.78880200       0.64072200       0.95789900
    50  C          0.71119800       0.14072200       0.54210100
    51  C          0.21119800       0.35927800       0.04210100
    52  C          0.28880200       0.85927800       0.45789900
    53  C          0.89940300       0.87153200       0.94550800
    54  C          0.60059700       0.37153200       0.55449200
    55  C          0.10059700       0.12846800       0.05449200
    56  C          0.39940300       0.62846800       0.44550800
    57  H          0.89774000       0.95103000       0.89777000
    58  H          0.60226000       0.45103000       0.60223000
    59  H          0.10226000       0.04897000       0.10223000
    60  H          0.39774000       0.54897000       0.39777000
    61  H          0.01733000       0.84163000       0.96147000
    62  H          0.48267000       0.34163000       0.53853000
    63  H         -0.01733000       0.15837000       0.03853000
    64  H          0.51733000       0.65837000       0.46147000
    65  H          0.85634000       0.90533000       0.00862000
    66  H          0.64366000       0.40533000       0.49138000
    67  H          0.14366000       0.09467000      -0.00862000
    68  H          0.35634000       0.59467000       0.50862000
    69  C          0.92625200       0.48213200       0.19428100
    70  C          0.57374800       0.98213200       0.30571900
    71  C          0.07374800       0.51786800       0.80571900
    72  C          0.42625200       0.01786800       0.69428100
    73  H          0.95534000       0.57493000       0.22961000
    74  H          0.54466000       0.07493000       0.27039000
    75  H          0.04466000       0.42507000       0.77039000
    76  H          0.45534000       0.92507000       0.72961000
    77  H          0.03653000       0.42844000       0.19101000
    78  H          0.46347000       0.92844000       0.30899000
    79  H          0.96347000       0.57156000       0.80899000
    80  H          0.53653000       0.07156000       0.69101000
    81  C          0.81734300       0.40229200       0.25129100
    82  C          0.68265700       0.90229200       0.24870900
    83  C          0.18265700       0.59770800       0.74870900
    84  C          0.31734300       0.09770800       0.75129100
    85  H          0.87264000       0.38682000       0.32242000
    86  H          0.62736000       0.88682000       0.17758000
    87  H          0.12736000       0.61318000       0.67758000
    88  H          0.37264000       0.11318000       0.82242000
    89  H          0.70803000       0.45622000       0.25583000
    90  H          0.79197000       0.95622000       0.24417000
    91  H          0.29197000       0.54378000       0.74417000
    92  H          0.20803000       0.04378000       0.75583000
    93  C          0.78469300       0.27096200       0.20253100
    94  C          0.71530700       0.77096200       0.29746900
    95  C          0.21530700       0.72903800       0.79746900
    96  C          0.28469300       0.22903800       0.70253100
    97  H          0.89004000       0.21043000       0.20832000
    98  H          0.60996000       0.71043000       0.29168000
    99  H          0.10996000       0.78957000       0.79168000
   100  H          0.39004000       0.28957000       0.70832000
   101  H          0.69345000       0.21823000       0.23602000
   102  H          0.80655000       0.71823000       0.26398000
   103  H          0.30655000       0.78177000       0.76398000
   104  H          0.19345000       0.28177000       0.73602000
   105  C          0.64863300       0.17364200       0.06024200
   106  C          0.85136700       0.67364200       0.43975800
   107  C          0.35136700       0.82635800       0.93975800
   108  C          0.14863300       0.32635800       0.56024200
   109  H          0.53074000       0.17244000       0.08272000
   110  H          0.96926000       0.67244000       0.41728000
   111  H          0.46926000       0.82756000       0.91728000
   112  H          0.03074000       0.32756000       0.58272000
   113  H          0.70795000       0.08403000       0.08712000
   114  H          0.79205000       0.58403000       0.41288000
   115  H          0.29205000       0.91597000       0.91288000
   116  H          0.20795000       0.41597000       0.58712000
   117  C          0.64245300       0.17673200       0.95348900
   118  C          0.85754700       0.67673200       0.54651100
   119  C          0.35754700       0.82326800       0.04651100
   120  C          0.14245300       0.32326800       0.45348900
   121  H          0.56825000       0.09752000       0.92349000
   122  H          0.93175000       0.59752000       0.57651000
   123  H          0.43175000       0.90248000       0.07651000
   124  H          0.06825000       0.40248000       0.42349000
   125  H          0.76024000       0.16283000       0.93129000
   126  H          0.73976000       0.66283000       0.56871000
   127  H          0.23976000       0.83717000       0.06871000
   128  H          0.26024000       0.33717000       0.43129000
   129  C          0.57795200       0.30898200       0.91685900
   130  C          0.92204800       0.80898200       0.58314100
   131  C          0.42204800       0.69101800       0.08314100
   132  C          0.07795200       0.19101800       0.41685900
   133  H          0.57925000       0.31231000       0.84038000
   134  H          0.92075000       0.81231000       0.65962000
   135  H          0.42075000       0.68769000       0.15962000
   136  H          0.07925000       0.18769000       0.34038000
   137  H          0.45593000       0.31841000       0.93197000
   138  H          0.04407000       0.81841000       0.56803000
   139  H          0.54407000       0.68159000       0.06803000
   140  H          0.95593000       0.18159000       0.43197000
   141  N          0.73229200       0.28657200       0.10296100
   142  N          0.76770800       0.78657200       0.39703900
   143  N          0.26770800       0.71342800       0.89703900
   144  N          0.23229200       0.21342800       0.60296100
