data_VEGMAV
_symmetry_space_group_name_H-M    'P1'
_symmetry_Int_Tables_number       1
loop_
_symmetry_equiv_pos_site_id
_symmetry_equiv_pos_as_xyz
1 x,y,z
_cell_length_a                   8.2532
_cell_length_b                   15.6607
_cell_length_c                   10.1124
_cell_angle_alpha                90.0
_cell_angle_beta                 95.823
_cell_angle_gamma                90.0
loop_
_atom_site_label
_atom_site_type_symbol
_atom_site_fract_x
_atom_site_fract_y
_atom_site_fract_z
     1  O          0.83194000       0.35592000       0.25173000
     2  O          0.66806000       0.85592000       0.74827000
     3  O          0.16806000       0.64408000       0.74827000
     4  O          0.33194000       0.14408000       0.25173000
     5  C          0.88197000       0.41494000       0.16196000
     6  C          0.61803000       0.91494000       0.83804000
     7  C          0.11803000       0.58506000       0.83804000
     8  C          0.38197000       0.08506000       0.16196000
     9  C          0.94867000       0.38224000       0.04785000
    10  C          0.55133000       0.88224000       0.95215000
    11  C          0.05133000       0.61776000       0.95215000
    12  C          0.44867000       0.11776000       0.04785000
    13  C          0.96476000       0.29734000       0.02715000
    14  C          0.53524000       0.79734000       0.97285000
    15  C          0.03524000       0.70266000       0.97285000
    16  C          0.46476000       0.20266000       0.02715000
    17  C          0.92616000       0.14914000       0.11155000
    18  C          0.57384000       0.64914000       0.88845000
    19  C          0.07384000       0.85086000       0.88845000
    20  C          0.42616000       0.35086000       0.11155000
    21  C          0.87816000       0.09453000       0.20735000
    22  C          0.62184000       0.59453000       0.79265000
    23  C          0.12184000       0.90547000       0.79265000
    24  C          0.37816000       0.40547000       0.20735000
    25  C          0.81055000       0.12903000       0.31935000
    26  C          0.68945000       0.62903000       0.68065000
    27  C          0.18945000       0.87097000       0.68065000
    28  C          0.31055000       0.37097000       0.31935000
    29  C          0.79665000       0.21793000       0.33224000
    30  C          0.70335000       0.71793000       0.66776000
    31  C          0.20335000       0.78207000       0.66776000
    32  C          0.29665000       0.28207000       0.33224000
    33  C          0.84916000       0.26913000       0.23275000
    34  C          0.65084000       0.76913000       0.76725000
    35  C          0.15084000       0.73087000       0.76725000
    36  C          0.34916000       0.23087000       0.23275000
    37  C          0.91366000       0.23793000       0.12124000
    38  C          0.58634000       0.73793000       0.87876000
    39  C          0.08634000       0.76207000       0.87876000
    40  C          0.41366000       0.26207000       0.12124000
    41  O          0.85976000       0.48983000       0.18844000
    42  O          0.64024000       0.98983000       0.81156000
    43  O          0.14024000       0.51017000       0.81156000
    44  O          0.35976000       0.01017000       0.18844000
    45  C          0.03408000       0.26734000       0.90365000
    46  C          0.46592000       0.76734000       0.09635000
    47  C          0.96592000       0.73266000       0.09635000
    48  C          0.53408000       0.23266000       0.90365000
    49  C          0.89337000      -0.00064000       0.18897000
    50  C          0.60663000       0.49936000       0.81103000
    51  C          0.10663000       0.00064000       0.81103000
    52  C          0.39337000       0.50064000       0.18897000
    53  C          0.87401200       0.95126000       0.31178000
    54  C          0.62598800       0.45126000       0.68822000
    55  C          0.12598800       0.04874000       0.68822000
    56  C          0.37401200       0.54874000       0.31178000
    57  C          0.75428000       0.98356000       0.39477000
    58  C          0.74572000       0.48356000       0.60523000
    59  C          0.24572000       0.01644000       0.60523000
    60  C          0.25428000       0.51644000       0.39477000
    61  N          0.76465000       0.07523000       0.41634000
    62  N          0.73535000       0.57523000       0.58366000
    63  N          0.23535000       0.92477000       0.58366000
    64  N          0.26465000       0.42477000       0.41634000
    65  C          0.67017000       0.10954000       0.51746000
    66  C          0.82983000       0.60954000       0.48254000
    67  C          0.32983000       0.89046000       0.48254000
    68  C          0.17017000       0.39046000       0.51746000
    69  C          0.73287000       0.19454000       0.56395000
    70  C          0.76713000       0.69454000       0.43605000
    71  C          0.26713000       0.80546000       0.43605000
    72  C          0.23287000       0.30546000       0.56395000
    73  C          0.73196000       0.25723000       0.45215000
    74  C          0.76804000       0.75723000       0.54785000
    75  C          0.26804000       0.74277000       0.54785000
    76  C          0.23196000       0.24277000       0.45215000
    77  H         -0.01400000       0.43410000      -0.01290000
    78  H          0.51400000       0.93410000       0.01290000
    79  H          0.01400000       0.56590000       0.01290000
    80  H          0.48600000       0.06590000      -0.01290000
    81  H          0.97150000       0.11900000       0.02760000
    82  H          0.52850000       0.61900000       0.97240000
    83  H          0.02850000       0.88100000       0.97240000
    84  H          0.47150000       0.38100000       0.02760000
    85  H          0.04550000       0.20880000       0.89530000
    86  H          0.45450000       0.70880000       0.10470000
    87  H          0.95450000       0.79120000       0.10470000
    88  H          0.54550000       0.29120000       0.89530000
    89  H          0.12660000       0.28370000       0.89210000
    90  H          0.37340000       0.78370000       0.10790000
    91  H          0.87340000       0.71630000       0.10790000
    92  H          0.62660000       0.21630000       0.89210000
    93  H          0.98090000       0.28680000       0.82460000
    94  H          0.51910000       0.78680000       0.17540000
    95  H          0.01910000       0.71320000       0.17540000
    96  H          0.48090000       0.21320000       0.82460000
    97  H          0.80520000       0.98020000       0.12620000
    98  H          0.69480000       0.48020000       0.87380000
    99  H          0.19480000       0.01980000       0.87380000
   100  H          0.30520000       0.51980000       0.12620000
   101  H         -0.00830000       0.98510000       0.15490000
   102  H          0.50830000       0.48510000       0.84510000
   103  H          0.00830000       0.01490000       0.84510000
   104  H          0.49170000       0.51490000       0.15490000
   105  H         -0.01270000       0.97190000       0.36860000
   106  H          0.51270000       0.47190000       0.63140000
   107  H          0.01270000       0.02810000       0.63140000
   108  H          0.48730000       0.52810000       0.36860000
   109  H          0.84940000       0.88630000       0.29250000
   110  H          0.65060000       0.38630000       0.70750000
   111  H          0.15060000       0.11370000       0.70750000
   112  H          0.34940000       0.61370000       0.29250000
   113  H          0.75460000       0.95540000       0.48840000
   114  H          0.74540000       0.45540000       0.51160000
   115  H          0.24540000       0.04460000       0.51160000
   116  H          0.25460000       0.54460000       0.48840000
   117  H          0.64580000       0.96540000       0.32750000
   118  H          0.85420000       0.46540000       0.67250000
   119  H          0.35420000       0.03460000       0.67250000
   120  H          0.14580000       0.53460000       0.32750000
   121  H          0.54340000       0.11640000       0.47510000
   122  H          0.95660000       0.61640000       0.52490000
   123  H          0.45660000       0.88360000       0.52490000
   124  H          0.04340000       0.38360000       0.47510000
   125  H          0.68910000       0.06960000       0.58940000
   126  H          0.81090000       0.56960000       0.41060000
   127  H          0.31090000       0.93040000       0.41060000
   128  H          0.18910000       0.43040000       0.58940000
   129  H          0.67100000       0.21990000       0.62980000
   130  H          0.82900000       0.71990000       0.37020000
   131  H          0.32900000       0.78010000       0.37020000
   132  H          0.17100000       0.28010000       0.62980000
   133  H          0.85940000       0.18550000       0.60960000
   134  H          0.64060000       0.68550000       0.39040000
   135  H          0.14060000       0.81450000       0.39040000
   136  H          0.35940000       0.31450000       0.60960000
   137  H          0.62660000       0.27380000       0.42640000
   138  H          0.87340000       0.77380000       0.57360000
   139  H          0.37340000       0.72620000       0.57360000
   140  H          0.12660000       0.22620000       0.42640000
   141  H          0.80690000       0.30560000       0.48240000
   142  H          0.69310000       0.80560000       0.51760000
   143  H          0.19310000       0.69440000       0.51760000
   144  H          0.30690000       0.19440000       0.48240000
