data_VEXMOA01
_symmetry_space_group_name_H-M    'P1'
_symmetry_Int_Tables_number       1
loop_
_symmetry_equiv_pos_site_id
_symmetry_equiv_pos_as_xyz
1 x,y,z
_cell_length_a                   5.67324
_cell_length_b                   23.2572
_cell_length_c                   7.45165
_cell_angle_alpha                90.0
_cell_angle_beta                 97.7437
_cell_angle_gamma                90.0
loop_
_atom_site_label
_atom_site_type_symbol
_atom_site_fract_x
_atom_site_fract_y
_atom_site_fract_z
     1  O         -0.01894190       0.05043500       0.85027150
     2  O          0.51894190       0.55043500       0.64972850
     3  O          0.01894190       0.94956500       0.14972850
     4  O          0.48105810       0.44956500       0.35027150
     5  N          0.67462000       0.13409600       0.14331180
     6  N          0.82538000       0.63409600       0.35668820
     7  N          0.32538000       0.86590400       0.85668820
     8  N          0.17462000       0.36590400       0.64331180
     9  N          0.16852000       0.04881500      -0.00662840
    10  N          0.33148000       0.54881500       0.50662840
    11  N          0.83148000       0.95118500       0.00662840
    12  N          0.66852000       0.45118500       0.49337160
    13  C          0.29912000       0.13583600       0.84972190
    14  C          0.20088000       0.63583600       0.65027810
    15  C          0.70088000       0.86416400       0.15027810
    16  C          0.79912000       0.36416400       0.34972190
    17  C          0.10853000       0.17379700       0.83702000
    18  C          0.39147000       0.67379700       0.66298000
    19  C          0.89147000       0.82620300       0.16298000
    20  C          0.60853000       0.32620300       0.33702000
    21  H         -0.00750000       0.17010000       0.91700000
    22  H          0.50750000       0.67010000       0.58300000
    23  H          0.00750000       0.82990000       0.08300000
    24  H          0.49250000       0.32990000       0.41700000
    25  C          0.08703000       0.21697700       0.70822000
    26  C          0.41297000       0.71697700       0.79178000
    27  C          0.91297000       0.78302300       0.29178000
    28  C          0.58703000       0.28302300       0.20822000
    29  H          0.95810000       0.24330000       0.70160000
    30  H          0.54190000       0.74330000       0.79840000
    31  H          0.04190000       0.75670000       0.29840000
    32  H          0.45810000       0.25670000       0.20160000
    33  C          0.25283000       0.22192700       0.58892000
    34  C          0.24717000       0.72192700       0.91108000
    35  C          0.74717000       0.77807300       0.41108000
    36  C          0.75283000       0.27807300       0.08892000
    37  H          0.23690000       0.25130000       0.49960000
    38  H          0.26310000       0.75130000       0.00040000
    39  H          0.76310000       0.74870000       0.50040000
    40  H          0.73690000       0.24870000      -0.00040000
    41  C          0.44163000       0.18395700       0.60032000
    42  C          0.05837000       0.68395700       0.89968000
    43  C          0.55837000       0.81604300       0.39968000
    44  C          0.94163000       0.31604300       0.10032000
    45  H          0.55460000       0.18710000       0.51760000
    46  H          0.94540000       0.68710000      -0.01760000
    47  H          0.44540000       0.81290000       0.48240000
    48  H          0.05460000       0.31290000       0.01760000
    49  C          0.46723000       0.14138700       0.73122000
    50  C          0.03277000       0.64138700       0.76878000
    51  C          0.53277000       0.85861300       0.26878000
    52  C          0.96723000       0.35861300       0.23122000
    53  H          0.59940000       0.11600000       0.74000000
    54  H          0.90060000       0.61600000       0.76000000
    55  H          0.40060000       0.88400000       0.26000000
    56  H          0.09940000       0.38400000       0.24000000
    57  C          0.32042000       0.08948600      -0.01137810
    58  C          0.17958000       0.58948600       0.51137810
    59  C          0.67958000       0.91051400       0.01137810
    60  C          0.82042000       0.41051400       0.48862190
    61  C          0.52613000       0.08876700       0.13697190
    62  C         -0.02613000       0.58876700       0.36302810
    63  C          0.47387000       0.91123300       0.86302810
    64  C          0.02613000       0.41123300       0.63697190
    65  C          0.56013000       0.04407700       0.26002000
    66  C          0.93987000       0.54407700       0.23998000
    67  C          0.43987000       0.95592300       0.73998000
    68  C          0.06013000       0.45592300       0.76002000
    69  H          0.45480000       0.01210000       0.25170000
    70  H          0.04520000       0.51210000       0.24830000
    71  H          0.54520000       0.98790000       0.74830000
    72  H          0.95480000       0.48790000       0.75170000
    73  C          0.75253000       0.04717800       0.39622000
    74  C          0.74747000       0.54717800       0.10378000
    75  C          0.24747000       0.95282200       0.60378000
    76  C          0.25253000       0.45282200       0.89622000
    77  H          0.77860000       0.01730000       0.48350000
    78  H          0.72140000       0.51730000       0.01650000
    79  H          0.22140000       0.98270000       0.51650000
    80  H          0.27860000       0.48270000      -0.01650000
    81  C          0.90483000       0.09311800       0.40522000
    82  C          0.59517000       0.59311800       0.09478000
    83  C          0.09517000       0.90688200       0.59478000
    84  C          0.40483000       0.40688200       0.90522000
    85  H          0.03690000       0.09580000       0.49780000
    86  H          0.46310000       0.59580000       0.00220000
    87  H          0.96310000       0.90420000       0.50220000
    88  H          0.53690000       0.40420000      -0.00220000
    89  C          0.86053000       0.13487800       0.27682000
    90  C          0.63947000       0.63487800       0.22318000
    91  C          0.13947000       0.86512200       0.72318000
    92  C          0.36053000       0.36512200       0.77682000
    93  H          0.96710000       0.16650000       0.28160000
    94  H          0.53290000       0.66650000       0.21840000
    95  H          0.03290000       0.83350000       0.71840000
    96  H          0.46710000       0.33350000       0.78160000
    97  H          0.90270000       0.01968000       0.87830000
    98  H          0.59730000       0.51968000       0.62170000
    99  H          0.09730000       0.98032000       0.12170000
   100  H          0.40270000       0.48032000       0.37830000
