data_VEXMOA
_symmetry_space_group_name_H-M    'P1'
_symmetry_Int_Tables_number       1
loop_
_symmetry_equiv_pos_site_id
_symmetry_equiv_pos_as_xyz
1 x,y,z
_cell_length_a                   16.2463
_cell_length_b                   8.4231
_cell_length_c                   17.3833
_cell_angle_alpha                90.0
_cell_angle_beta                 122.341
_cell_angle_gamma                90.0
loop_
_atom_site_label
_atom_site_type_symbol
_atom_site_fract_x
_atom_site_fract_y
_atom_site_fract_z
     1  N          0.55231000       0.35532000       0.51961000
     2  N          0.05231000       0.85532000       0.51961000
     3  N          0.44769000       0.35532000       0.98039000
     4  N          0.94769000       0.85532000       0.98039000
     5  N          0.44769000       0.64468000       0.48039000
     6  N          0.94769000       0.14468000       0.48039000
     7  N          0.55231000       0.64468000       0.01961000
     8  N          0.05231000       0.14468000       0.01961000
     9  C          0.58671000       0.25472000       0.58441000
    10  C          0.08671000       0.75472000       0.58441000
    11  C          0.41329000       0.25472000       0.91559000
    12  C          0.91329000       0.75472000       0.91559000
    13  C          0.41329000       0.74528000       0.41559000
    14  C          0.91329000       0.24528000       0.41559000
    15  C          0.58671000       0.74528000       0.08441000
    16  C          0.08671000       0.24528000       0.08441000
    17  C          0.51171000       0.18082000       0.59701000
    18  C          0.01171000       0.68082000       0.59701000
    19  C          0.48829000       0.18082000       0.90299000
    20  C         -0.01171000       0.68082000       0.90299000
    21  C          0.48829000       0.81918000       0.40299000
    22  C         -0.01171000       0.31918000       0.40299000
    23  C          0.51171000       0.81918000       0.09701000
    24  C          0.01171000       0.31918000       0.09701000
    25  C          0.51791000       0.02122000       0.62091000
    26  C          0.01791000       0.52122000       0.62091000
    27  C          0.48209000       0.02122000       0.87909000
    28  C          0.98209000       0.52122000       0.87909000
    29  C          0.48209000       0.97878000       0.37909000
    30  C          0.98209000       0.47878000       0.37909000
    31  C          0.51791000       0.97878000       0.12091000
    32  C          0.01791000       0.47878000       0.12091000
    33  C          0.44652000       0.95608000       0.63032000
    34  C          0.94652000       0.45608000       0.63032000
    35  C          0.55348000       0.95608000       0.86968000
    36  C          0.05348000       0.45608000       0.86968000
    37  C          0.55348000       0.04392000       0.36968000
    38  C          0.05348000       0.54392000       0.36968000
    39  C          0.44652000       0.04392000       0.13032000
    40  C          0.94652000       0.54392000       0.13032000
    41  C          0.37021000       0.05083000       0.61732000
    42  C          0.87021000       0.55083000       0.61732000
    43  C          0.62979000       0.05083000       0.88268000
    44  C          0.12979000       0.55083000       0.88268000
    45  C          0.62979000       0.94917000       0.38268000
    46  C          0.12979000       0.44917000       0.38268000
    47  C          0.37021000       0.94917000       0.11732000
    48  C          0.87021000       0.44917000       0.11732000
    49  C          0.37011000       0.20673000       0.59531000
    50  C          0.87011000       0.70673000       0.59531000
    51  C          0.62989000       0.20673000       0.90469000
    52  C          0.12989000       0.70673000       0.90469000
    53  C          0.62989000       0.79327000       0.40469000
    54  C          0.12989000       0.29327000       0.40469000
    55  C          0.37011000       0.79327000       0.09531000
    56  C          0.87011000       0.29327000       0.09531000
    57  N          0.43791000       0.27362000       0.58461000
    58  N          0.93791000       0.77362000       0.58461000
    59  N          0.56209000       0.27362000       0.91539000
    60  N          0.06209000       0.77362000       0.91539000
    61  N          0.56209000       0.72638000       0.41539000
    62  N          0.06209000       0.22638000       0.41539000
    63  N          0.43791000       0.72638000       0.08461000
    64  N          0.93791000       0.22638000       0.08461000
    65  C          0.69041000       0.20672000       0.64711000
    66  C          0.19041000       0.70672000       0.64711000
    67  C          0.30959000       0.20672000       0.85289000
    68  C          0.80959000       0.70672000       0.85289000
    69  C          0.30959000       0.79328000       0.35289000
    70  C          0.80959000       0.29328000       0.35289000
    71  C          0.69041000       0.79328000       0.14711000
    72  C          0.19041000       0.29328000       0.14711000
    73  C          0.72921000       0.20772000       0.74041000
    74  C          0.22921000       0.70772000       0.74041000
    75  C          0.27079000       0.20772000       0.75959000
    76  C          0.77079000       0.70772000       0.75959000
    77  C          0.27079000       0.79228000       0.25959000
    78  C          0.77079000       0.29228000       0.25959000
    79  C          0.72921000       0.79228000       0.24041000
    80  C          0.22921000       0.29228000       0.24041000
    81  C          0.82412000       0.15793000       0.80061000
    82  C          0.32412000       0.65793000       0.80061000
    83  C          0.17588000       0.15793000       0.69939000
    84  C          0.67588000       0.65793000       0.69939000
    85  C          0.17588000       0.84207000       0.19939000
    86  C          0.67588000       0.34207000       0.19939000
    87  C          0.82412000       0.84207000       0.30061000
    88  C          0.32412000       0.34207000       0.30061000
    89  C          0.87991000       0.10623000       0.76882000
    90  C          0.37991000       0.60623000       0.76882000
    91  C          0.12009000       0.10623000       0.73118000
    92  C          0.62009000       0.60623000       0.73118000
    93  C          0.12009000       0.89377000       0.23118000
    94  C          0.62009000       0.39377000       0.23118000
    95  C          0.87991000       0.89377000       0.26882000
    96  C          0.37991000       0.39377000       0.26882000
    97  C          0.84301000       0.10532000       0.67682000
    98  C          0.34301000       0.60532000       0.67682000
    99  C          0.15699000       0.10532000       0.82318000
   100  C          0.65699000       0.60532000       0.82318000
   101  C          0.15699000       0.89468000       0.32318000
   102  C          0.65699000       0.39468000       0.32318000
   103  C          0.84301000       0.89468000       0.17682000
   104  C          0.34301000       0.39468000       0.17682000
   105  C          0.74811000       0.15732000       0.61561000
   106  C          0.24811000       0.65732000       0.61561000
   107  C          0.25189000       0.15732000       0.88439000
   108  C          0.75189000       0.65732000       0.88439000
   109  C          0.25189000       0.84268000       0.38439000
   110  C          0.75189000       0.34268000       0.38439000
   111  C          0.74811000       0.84268000       0.11561000
   112  C          0.24811000       0.34268000       0.11561000
   113  O          0.62351000       0.42962000       0.51011000
   114  O          0.12351000       0.92962000       0.51011000
   115  O          0.37649000       0.42962000       0.98989000
   116  O          0.87649000       0.92962000       0.98989000
   117  O          0.37649000       0.57038000       0.48989000
   118  O          0.87649000       0.07038000       0.48989000
   119  O          0.62351000       0.57038000       0.01011000
   120  O          0.12351000       0.07038000       0.01011000
   121  H          0.56820000       0.96270000       0.61710000
   122  H          0.06820000       0.46270000       0.61710000
   123  H          0.43180000       0.96270000       0.88290000
   124  H          0.93180000       0.46270000       0.88290000
   125  H          0.43180000       0.03730000       0.38290000
   126  H          0.93180000       0.53730000       0.38290000
   127  H          0.56820000       0.03730000       0.11710000
   128  H          0.06820000       0.53730000       0.11710000
   129  H          0.44120000       0.84170000       0.64510000
   130  H          0.94120000       0.34170000       0.64510000
   131  H          0.55880000       0.84170000       0.85490000
   132  H          0.05880000       0.34170000       0.85490000
   133  H          0.55880000       0.15830000       0.35490000
   134  H          0.05880000       0.65830000       0.35490000
   135  H          0.44120000       0.15830000       0.14510000
   136  H          0.94120000       0.65830000       0.14510000
   137  H          0.31710000       0.00220000       0.62910000
   138  H          0.81710000       0.50220000       0.62910000
   139  H          0.68290000       0.00220000       0.87090000
   140  H          0.18290000       0.50220000       0.87090000
   141  H          0.68290000      -0.00220000       0.37090000
   142  H          0.18290000       0.49780000       0.37090000
   143  H          0.31710000      -0.00220000       0.12910000
   144  H          0.81710000       0.49780000       0.12910000
   145  H          0.32310000       0.28020000       0.59110000
   146  H          0.82310000       0.78020000       0.59110000
   147  H          0.67690000       0.28020000       0.90890000
   148  H          0.17690000       0.78020000       0.90890000
   149  H          0.67690000       0.71980000       0.40890000
   150  H          0.17690000       0.21980000       0.40890000
   151  H          0.32310000       0.71980000       0.09110000
   152  H          0.82310000       0.21980000       0.09110000
   153  H          0.68410000       0.24420000       0.76010000
   154  H          0.18410000       0.74420000       0.76010000
   155  H          0.31590000       0.24420000       0.73990000
   156  H          0.81590000       0.74420000       0.73990000
   157  H          0.31590000       0.75580000       0.23990000
   158  H          0.81590000       0.25580000       0.23990000
   159  H          0.68410000       0.75580000       0.26010000
   160  H          0.18410000       0.25580000       0.26010000
   161  H          0.85120000       0.15330000       0.86710000
   162  H          0.35120000       0.65330000       0.86710000
   163  H          0.14880000       0.15330000       0.63290000
   164  H          0.64880000       0.65330000       0.63290000
   165  H          0.14880000       0.84670000       0.13290000
   166  H          0.64880000       0.34670000       0.13290000
   167  H          0.85120000       0.84670000       0.36710000
   168  H          0.35120000       0.34670000       0.36710000
   169  H          0.95120000       0.06720000       0.81510000
   170  H          0.45120000       0.56720000       0.81510000
   171  H          0.04880000       0.06720000       0.68490000
   172  H          0.54880000       0.56720000       0.68490000
   173  H          0.04880000       0.93280000       0.18490000
   174  H          0.54880000       0.43280000       0.18490000
   175  H          0.95120000       0.93280000       0.31510000
   176  H          0.45120000       0.43280000       0.31510000
   177  H          0.88110000       0.06920000       0.64810000
   178  H          0.38110000       0.56920000       0.64810000
   179  H          0.11890000       0.06920000       0.85190000
   180  H          0.61890000       0.56920000       0.85190000
   181  H          0.11890000       0.93080000       0.35190000
   182  H          0.61890000       0.43080000       0.35190000
   183  H          0.88110000       0.93080000       0.14810000
   184  H          0.38110000       0.43080000       0.14810000
   185  H          0.72410000       0.16020000       0.55410000
   186  H          0.22410000       0.66020000       0.55410000
   187  H          0.27590000       0.16020000       0.94590000
   188  H          0.77590000       0.66020000       0.94590000
   189  H          0.27590000       0.83980000       0.44590000
   190  H          0.77590000       0.33980000       0.44590000
   191  H          0.72410000       0.83980000       0.05410000
   192  H          0.22410000       0.33980000       0.05410000
   193  H          0.58920000       0.52930000       0.47210000
   194  H          0.08920000       0.02930000       0.47210000
   195  H          0.41080000       0.52930000       0.02790000
   196  H          0.91080000       0.02930000       0.02790000
   197  H          0.41080000       0.47070000       0.52790000
   198  H          0.91080000       0.97070000       0.52790000
   199  H          0.58920000       0.47070000       0.97210000
   200  H          0.08920000       0.97070000       0.97210000
