data_VEXMOA02
_symmetry_space_group_name_H-M    'P1'
_symmetry_Int_Tables_number       1
loop_
_symmetry_equiv_pos_site_id
_symmetry_equiv_pos_as_xyz
1 x,y,z
_cell_length_a                   10.59421
_cell_length_b                   9.849413
_cell_length_c                   19.6462
_cell_angle_alpha                90.0
_cell_angle_beta                 90.0
_cell_angle_gamma                90.0
loop_
_atom_site_label
_atom_site_type_symbol
_atom_site_fract_x
_atom_site_fract_y
_atom_site_fract_z
     1  O          0.75578000       0.51553000       0.32372160
     2  O          0.74422000       0.48447000       0.82372160
     3  O          0.25578000       0.98447000       0.67627840
     4  O          0.24422000       0.01553000       0.17627840
     5  O          0.24422000       0.48447000       0.67627840
     6  O          0.25578000       0.51553000       0.17627840
     7  O          0.74422000       0.01553000       0.32372160
     8  O          0.75578000       0.98447000       0.82372160
     9  H          0.81780000       0.47300000       0.31060000
    10  H          0.68220000       0.52700000       0.81060000
    11  H          0.31780000       0.02700000       0.68940000
    12  H          0.18220000       0.97300000       0.18940000
    13  H          0.18220000       0.52700000       0.68940000
    14  H          0.31780000       0.47300000       0.18940000
    15  H          0.68220000       0.97300000       0.31060000
    16  H          0.81780000       0.02700000       0.81060000
    17  N          0.67837000       0.43043000       0.36132150
    18  N          0.82163000       0.56957000       0.86132150
    19  N          0.17837000       0.06957000       0.63867850
    20  N          0.32163000       0.93043000       0.13867850
    21  N          0.32163000       0.56957000       0.63867850
    22  N          0.17837000       0.43043000       0.13867850
    23  N          0.82163000       0.93043000       0.36132150
    24  N          0.67837000       0.06957000       0.86132150
    25  C          0.53877000       0.84394000       0.32432160
    26  C          0.96123000       0.15606000       0.82432160
    27  C          0.03877000       0.65606000       0.67567840
    28  C          0.46123000       0.34394000       0.17567840
    29  C          0.46123000       0.15606000       0.67567840
    30  C          0.03877000       0.84394000       0.17567840
    31  C          0.96123000       0.34394000       0.32432160
    32  C          0.53877000       0.65606000       0.82432160
    33  H          0.58860000       0.92140000       0.32700000
    34  H          0.91140000       0.07860000       0.82700000
    35  H          0.08860000       0.57860000       0.67300000
    36  H          0.41140000       0.42140000       0.17300000
    37  H          0.41140000       0.07860000       0.67300000
    38  H          0.08860000       0.92140000       0.17300000
    39  H          0.91140000       0.42140000       0.32700000
    40  H          0.58860000       0.57860000       0.82700000
    41  C          0.49945000       0.23945000       0.40092000
    42  C          0.00055000       0.76055000       0.90092000
    43  C         -0.00055000       0.26055000       0.59908000
    44  C          0.50055000       0.73945000       0.09908000
    45  C          0.50055000       0.76055000       0.59908000
    46  C         -0.00055000       0.23945000       0.09908000
    47  C          0.00055000       0.73945000       0.40092000
    48  C          0.49945000       0.26055000       0.90092000
    49  H          0.56140000       0.20570000       0.37190000
    50  H          0.93860000       0.79430000       0.87190000
    51  H          0.06140000       0.29430000       0.62810000
    52  H          0.43860000       0.70570000       0.12810000
    53  H          0.43860000       0.79430000       0.62810000
    54  H          0.06140000       0.20570000       0.12810000
    55  H          0.93860000       0.70570000       0.37190000
    56  H          0.56140000       0.29430000       0.87190000
    57  C          0.42745000       0.15066000       0.43973000
    58  C          0.07255000       0.84934000       0.93973000
    59  C          0.92745000       0.34934000       0.56027000
    60  C          0.57255000       0.65066000       0.06027000
    61  C          0.57255000       0.84934000       0.56027000
    62  C          0.92745000       0.15066000       0.06027000
    63  C          0.07255000       0.65066000       0.43973000
    64  C          0.42745000       0.34934000       0.93973000
    65  H          0.44170000       0.05760000       0.43700000
    66  H          0.05830000       0.94240000       0.93700000
    67  H          0.94170000       0.44240000       0.56300000
    68  H          0.55830000       0.55760000       0.06300000
    69  H          0.55830000       0.94240000       0.56300000
    70  H          0.94170000       0.05760000       0.06300000
    71  H          0.05830000       0.55760000       0.43700000
    72  H          0.44170000       0.44240000       0.93700000
    73  C          0.33405000       0.20116000       0.48262000
    74  C          0.16595000       0.79884000       0.98262000
    75  C          0.83405000       0.29884000       0.51738000
    76  C          0.66595000       0.70116000       0.01738000
    77  C          0.66595000       0.79884000       0.51738000
    78  C          0.83405000       0.20116000       0.01738000
    79  C          0.16595000       0.70116000       0.48262000
    80  C          0.33405000       0.29884000       0.98262000
    81  H          0.28610000       0.14210000       0.50900000
    82  H          0.21390000       0.85790000       0.00900000
    83  H          0.78610000       0.35790000       0.49100000
    84  H          0.71390000       0.64210000       0.99100000
    85  H          0.71390000       0.85790000       0.49100000
    86  H          0.78610000       0.14210000       0.99100000
    87  H          0.21390000       0.64210000       0.50900000
    88  H          0.28610000       0.35790000       0.00900000
    89  C          0.34715000       0.73825000       0.29442000
    90  C          0.15285000       0.26175000       0.79442000
    91  C          0.84715000       0.76175000       0.70558000
    92  C          0.65285000       0.23825000       0.20558000
    93  C          0.65285000       0.26175000       0.70558000
    94  C          0.84715000       0.73825000       0.20558000
    95  C          0.15285000       0.23825000       0.29442000
    96  C          0.34715000       0.76175000       0.79442000
    97  H          0.26650000       0.74530000       0.27610000
    98  H          0.23350000       0.25470000       0.77610000
    99  H          0.76650000       0.75470000       0.72390000
   100  H          0.73350000       0.24530000       0.22390000
   101  H          0.73350000       0.25470000       0.72390000
   102  H          0.76650000       0.74530000       0.22390000
   103  H          0.23350000       0.24530000       0.27610000
   104  H          0.26650000       0.75470000       0.77610000
   105  C          0.31376000       0.33596000       0.48572000
   106  C          0.18624000       0.66404000       0.98572000
   107  C          0.81376000       0.16404000       0.51428000
   108  C          0.68624000       0.83596000       0.01428000
   109  C          0.68624000       0.66404000       0.51428000
   110  C          0.81376000       0.33596000       0.01428000
   111  C          0.18624000       0.83596000       0.48572000
   112  C          0.31376000       0.16404000       0.98572000
   113  H          0.25080000       0.36910000       0.51410000
   114  H          0.24920000       0.63090000       0.01410000
   115  H          0.75080000       0.13090000       0.48590000
   116  H          0.74920000       0.86910000       0.98590000
   117  H          0.74920000       0.63090000       0.48590000
   118  H          0.75080000       0.36910000       0.98590000
   119  H          0.24920000       0.86910000       0.51410000
   120  H          0.25080000       0.13090000       0.01410000
   121  C          0.42276000       0.85125000       0.29972000
   122  C          0.07724000       0.14875000       0.79972000
   123  C          0.92276000       0.64875000       0.70028000
   124  C          0.57724000       0.35125000       0.20028000
   125  C          0.57724000       0.14875000       0.70028000
   126  C          0.92276000       0.85125000       0.20028000
   127  C          0.07724000       0.35125000       0.29972000
   128  C          0.42276000       0.64875000       0.79972000
   129  H          0.39160000       0.93490000       0.28570000
   130  H          0.10840000       0.06510000       0.78570000
   131  H          0.89160000       0.56510000       0.71430000
   132  H          0.60840000       0.43490000       0.21430000
   133  H          0.60840000       0.06510000       0.71430000
   134  H          0.89160000       0.93490000       0.21430000
   135  H          0.10840000       0.43490000       0.28570000
   136  H          0.39160000       0.56510000       0.78570000
   137  C          0.39166000       0.61525000       0.31622000
   138  C          0.10834000       0.38475000       0.81622000
   139  C          0.89166000       0.88475000       0.68378000
   140  C          0.60834000       0.11525000       0.18378000
   141  C          0.60834000       0.38475000       0.68378000
   142  C          0.89166000       0.61525000       0.18378000
   143  C          0.10834000       0.11525000       0.31622000
   144  C          0.39166000       0.88475000       0.81622000
   145  H          0.34090000       0.53850000       0.31330000
   146  H          0.15910000       0.46150000       0.81330000
   147  H          0.84090000       0.96150000       0.68670000
   148  H          0.65910000       0.03850000       0.18670000
   149  H          0.65910000       0.46150000       0.68670000
   150  H          0.84090000       0.53850000       0.18670000
   151  H          0.15910000       0.03850000       0.31330000
   152  H          0.34090000       0.96150000       0.81330000
   153  C          0.38506000       0.42655000       0.44742000
   154  C          0.11494000       0.57345000       0.94742000
   155  C          0.88506000       0.07345000       0.55258000
   156  C          0.61494000       0.92655000       0.05258000
   157  C          0.61494000       0.57345000       0.55258000
   158  C          0.88506000       0.42655000       0.05258000
   159  C          0.11494000       0.92655000       0.44742000
   160  C          0.38506000       0.07345000       0.94742000
   161  H          0.36980000       0.51930000       0.45000000
   162  H          0.13020000       0.48070000       0.95000000
   163  H          0.86980000       0.98070000       0.55000000
   164  H          0.63020000       0.01930000       0.05000000
   165  H          0.63020000       0.48070000       0.55000000
   166  H          0.86980000       0.51930000       0.05000000
   167  H          0.13020000       0.01930000       0.45000000
   168  H          0.36980000       0.98070000       0.95000000
   169  C          0.47926000       0.37674000       0.40513180
   170  C          0.02074000       0.62326000       0.90513180
   171  C          0.97926000       0.12326000       0.59486820
   172  C          0.52074000       0.87674000       0.09486820
   173  C          0.52074000       0.62326000       0.59486820
   174  C          0.97926000       0.37674000       0.09486820
   175  C          0.02074000       0.87674000       0.40513180
   176  C          0.47926000       0.12326000       0.90513180
   177  C          0.56387000       0.47434000       0.36781170
   178  C          0.93613000       0.52566000       0.86781170
   179  C          0.06387000       0.02566000       0.63218830
   180  C          0.43613000       0.97434000       0.13218830
   181  C          0.43613000       0.52566000       0.63218830
   182  C          0.06387000       0.47434000       0.13218830
   183  C          0.93613000       0.97434000       0.36781170
   184  C          0.56387000       0.02566000       0.86781170
   185  C          0.51307000       0.60544000       0.34281180
   186  C         -0.01307000       0.39456000       0.84281180
   187  C          0.01307000       0.89456000       0.65718820
   188  C          0.48693000       0.10544000       0.15718820
   189  C          0.48693000       0.39456000       0.65718820
   190  C          0.01307000       0.60544000       0.15718820
   191  C         -0.01307000       0.10544000       0.34281180
   192  C          0.51307000       0.89456000       0.84281180
   193  N          0.58396000       0.72424000       0.34532000
   194  N          0.91604000       0.27576000       0.84532000
   195  N          0.08396000       0.77576000       0.65468000
   196  N          0.41604000       0.22424000       0.15468000
   197  N          0.41604000       0.27576000       0.65468000
   198  N          0.08396000       0.72424000       0.15468000
   199  N          0.91604000       0.22424000       0.34532000
   200  N          0.58396000       0.77576000       0.84532000
