data_VIMPAJ03
_symmetry_space_group_name_H-M    'P1'
_symmetry_Int_Tables_number       1
loop_
_symmetry_equiv_pos_site_id
_symmetry_equiv_pos_as_xyz
1 x,y,z
_cell_length_a                   11.77747
_cell_length_b                   5.315916
_cell_length_c                   23.3493
_cell_angle_alpha                90.0
_cell_angle_beta                 97.5927
_cell_angle_gamma                90.0
loop_
_atom_site_label
_atom_site_type_symbol
_atom_site_fract_x
_atom_site_fract_y
_atom_site_fract_z
     1  C          0.19256140       0.51864000       0.54949700
     2  C          0.80743860       0.01864000       0.95050300
     3  C          0.80743860       0.48136000       0.45050300
     4  C          0.19256140      -0.01864000       0.04949700
     5  C          0.27518140       0.44244000       0.51277700
     6  C          0.72481860       0.94244000       0.98722300
     7  C          0.72481860       0.55756000       0.48722300
     8  C          0.27518140       0.05756000       0.01277700
     9  C          0.33577130       0.24824000       0.54370700
    10  C          0.66422870       0.74824000       0.95629300
    11  C          0.66422870       0.75176000       0.45629300
    12  C          0.33577130       0.25176000       0.04370700
    13  C          0.32403140       0.03654000       0.63923700
    14  C          0.67596860       0.53654000       0.86076300
    15  C          0.67596860       0.96346000       0.36076300
    16  C          0.32403140       0.46346000       0.13923700
    17  C          0.27829150       0.06484000       0.69111800
    18  C          0.72170850       0.56484000       0.80888200
    19  C          0.72170850       0.93516000       0.30888200
    20  C          0.27829150       0.43516000       0.19111800
    21  H          0.22800000       0.19590000       0.69570000
    22  H          0.77200000       0.69590000       0.80430000
    23  H          0.77200000       0.80410000       0.30430000
    24  H          0.22800000       0.30410000       0.19570000
    25  C          0.30882160       0.89476000       0.73587800
    26  C          0.69117840       0.39476000       0.76412200
    27  C          0.69117840       0.10524000       0.26412200
    28  C          0.30882160       0.60524000       0.23587800
    29  H          0.27730000       0.91100000       0.77020000
    30  H          0.72270000       0.41100000       0.72980000
    31  H          0.72270000       0.08900000       0.22980000
    32  H          0.27730000       0.58900000       0.27020000
    33  C          0.38593160       0.70106000       0.72998800
    34  C          0.61406840       0.20106000       0.77001200
    35  C          0.61406840       0.29894000       0.27001200
    36  C          0.38593160       0.79894000       0.22998800
    37  H          0.40690000       0.58990000       0.76030000
    38  H          0.59310000       0.08990000       0.73970000
    39  H          0.59310000       0.41010000       0.23970000
    40  H          0.40690000       0.91010000       0.26030000
    41  C          0.43118150       0.67596000       0.67823800
    42  C          0.56881850       0.17596000       0.82176200
    43  C          0.56881850       0.32404000       0.32176200
    44  C          0.43118150       0.82404000       0.17823800
    45  H          0.48270000       0.54700000       0.67400000
    46  H          0.51730000       0.04700000       0.82600000
    47  H          0.51730000       0.45300000       0.32600000
    48  H          0.48270000       0.95300000       0.17400000
    49  C          0.40023140       0.84116000       0.63287800
    50  C          0.59976860       0.34116000       0.86712200
    51  C          0.59976860       0.15884000       0.36712200
    52  C          0.40023140       0.65884000       0.13287800
    53  H          0.43030000       0.82160000       0.59830000
    54  H          0.56970000       0.32160000       0.90170000
    55  H          0.56970000       0.17840000       0.40170000
    56  H          0.43030000       0.67840000       0.09830000
    57  C          0.10916140       0.73384000       0.54352800
    58  C          0.89083860       0.23384000       0.95647200
    59  C          0.89083860       0.26616000       0.45647200
    60  C          0.10916140       0.76616000       0.04352800
    61  H          0.04260000       0.68770000       0.51730000
    62  H          0.95740000       0.18770000       0.98270000
    63  H          0.95740000       0.31230000       0.48270000
    64  H          0.04260000       0.81230000       0.01730000
    65  H          0.14460000       0.87840000       0.52880000
    66  H          0.85540000       0.37840000       0.97120000
    67  H          0.85540000       0.12160000       0.47120000
    68  H          0.14460000       0.62160000       0.02880000
    69  H          0.08700000       0.77280000       0.58060000
    70  H          0.91300000       0.27280000       0.91940000
    71  H          0.91300000       0.22720000       0.41940000
    72  H          0.08700000       0.72720000       0.08060000
    73  C          0.31150140       0.52304000       0.45881700
    74  C          0.68849860       0.02304000       0.04118300
    75  C          0.68849860       0.47696000       0.54118300
    76  C          0.31150140      -0.02304000       0.95881700
    77  C          0.24452140       0.70334000       0.41905700
    78  C          0.75547860       0.20334000       0.08094300
    79  C          0.75547860       0.29666000       0.58094300
    80  C          0.24452140       0.79666000       0.91905700
    81  C          0.30195150       0.88304000       0.38997700
    82  C          0.69804850       0.38304000       0.11002300
    83  C          0.69804850       0.11696000       0.61002300
    84  C          0.30195150       0.61696000       0.88997700
    85  H          0.38150000       0.89100000       0.39620000
    86  H          0.61850000       0.39100000       0.10380000
    87  H          0.61850000       0.10900000       0.60380000
    88  H          0.38150000       0.60900000       0.89620000
    89  C          0.24083160       0.04914000       0.35193800
    90  C          0.75916840       0.54914000       0.14806200
    91  C          0.75916840       0.95086000       0.64806200
    92  C          0.24083160       0.45086000       0.85193800
    93  H          0.27990000       0.17100000       0.33370000
    94  H          0.72010000       0.67100000       0.16630000
    95  H          0.72010000       0.82900000       0.66630000
    96  H          0.27990000       0.32900000       0.83370000
    97  C          0.12101150       0.03664000       0.34048700
    98  C          0.87898850       0.53664000       0.15951300
    99  C          0.87898850       0.96336000       0.65951300
   100  C          0.12101150       0.46336000       0.84048700
   101  C          0.06469150       0.85374000       0.36862700
   102  C          0.93530850       0.35374000       0.13137300
   103  C          0.93530850       0.14626000       0.63137300
   104  C          0.06469150       0.64626000       0.86862700
   105  H          0.98540000       0.84090000       0.36120000
   106  H          0.01460000       0.34090000       0.13880000
   107  H          0.01460000       0.15910000       0.63880000
   108  H          0.98540000       0.65910000       0.86120000
   109  C          0.12535140       0.68984000       0.40773700
   110  C          0.87464860       0.18984000       0.09226300
   111  C          0.87464860       0.31016000       0.59226300
   112  C          0.12535140       0.81016000       0.90773700
   113  H          0.08620000       0.57010000       0.42650000
   114  H          0.91380000       0.07010000       0.07350000
   115  H          0.91380000       0.42990000       0.57350000
   116  H          0.08620000       0.92990000       0.92650000
   117  C          0.05521170       0.21704000       0.29821800
   118  C          0.94478830       0.71704000       0.20178200
   119  C          0.94478830       0.78296000       0.70178200
   120  C          0.05521170       0.28296000       0.79821800
   121  H          0.06290000       0.16640000       0.25940000
   122  H          0.93710000       0.66640000       0.24060000
   123  H          0.93710000       0.83360000       0.74060000
   124  H          0.06290000       0.33360000       0.75940000
   125  H          0.08530000       0.38380000       0.30490000
   126  H          0.91470000       0.88380000       0.19510000
   127  H          0.91470000       0.61620000       0.69510000
   128  H          0.08530000       0.11620000       0.80490000
   129  H          0.97580000       0.21510000       0.30350000
   130  H          0.02420000       0.71510000       0.19650000
   131  H          0.02420000       0.78490000       0.69650000
   132  H          0.97580000       0.28490000       0.80350000
   133  N          0.29063110       0.20973000       0.59336600
   134  N          0.70936890       0.70973000       0.90663400
   135  N          0.70936890       0.79027000       0.40663400
   136  N          0.29063110       0.29027000       0.09336600
   137  N          0.20121120       0.38123000       0.59712600
   138  N          0.79878880       0.88123000       0.90287400
   139  N          0.79878880       0.61877000       0.40287400
   140  N          0.20121120       0.11877000       0.09712600
   141  O          0.42367100       0.12023000       0.52895500
   142  O          0.57632900       0.62023000       0.97104500
   143  O          0.57632900       0.87977000       0.47104500
   144  O          0.42367100       0.37977000       0.02895500
   145  H          0.43900000       0.17130000       0.49770000
   146  H          0.56100000       0.67130000       0.00230000
   147  H          0.56100000       0.82870000       0.50230000
   148  H          0.43900000       0.32870000      -0.00230000
   149  O          0.40316100       0.43413000       0.44466500
   150  O          0.59683900       0.93413000       0.05533500
   151  O          0.59683900       0.56587000       0.55533500
   152  O          0.40316100       0.06587000       0.94466500
