data_VIMPAJ05
_symmetry_space_group_name_H-M    'P1'
_symmetry_Int_Tables_number       1
loop_
_symmetry_equiv_pos_site_id
_symmetry_equiv_pos_as_xyz
1 x,y,z
_cell_length_a                   7.47235
_cell_length_b                   17.31318
_cell_length_c                   11.32735
_cell_angle_alpha                90.0
_cell_angle_beta                 90.0
_cell_angle_gamma                90.0
loop_
_atom_site_label
_atom_site_type_symbol
_atom_site_fract_x
_atom_site_fract_y
_atom_site_fract_z
     1  C          0.58827000       0.76273000       0.68525000
     2  C          0.41173000       0.23727000       0.18525000
     3  C          0.91173000       0.26273000       0.18525000
     4  C          0.08827000       0.73727000       0.68525000
     5  C          0.63368000       0.74393000       0.56515000
     6  C          0.36632000       0.25607000       0.06515000
     7  C          0.86632000       0.24393000       0.06515000
     8  C          0.13368000       0.75607000       0.56515000
     9  C          0.65467000       0.81614000       0.51265000
    10  C          0.34533000       0.18386000       0.01265000
    11  C          0.84533000       0.31614000       0.01265000
    12  C          0.15467000       0.68386000       0.51265000
    13  C          0.62437000       0.95283000       0.57985000
    14  C          0.37563000       0.04717000       0.07985000
    15  C          0.87563000       0.45283000       0.07985000
    16  C          0.12437000       0.54717000       0.57985000
    17  C          0.67447000      -0.00097000       0.67735000
    18  C          0.32553000       0.00097000       0.17735000
    19  C          0.82553000       0.49903000       0.17735000
    20  C          0.17447000       0.50097000       0.67735000
    21  H          0.71440000       0.97600000       0.74870000
    22  H          0.28560000       0.02400000       0.24870000
    23  H          0.78560000       0.47600000       0.24870000
    24  H          0.21440000       0.52400000       0.74870000
    25  C          0.66388000       0.07783000       0.66666000
    26  C          0.33612000       0.92217000       0.16666000
    27  C          0.83612000       0.57783000       0.16666000
    28  C          0.16388000       0.42217000       0.66666000
    29  H          0.69570000       0.10950000       0.73180000
    30  H          0.30430000       0.89050000       0.23180000
    31  H          0.80430000       0.60950000       0.23180000
    32  H          0.19570000       0.39050000       0.73180000
    33  C          0.60718000       0.11214000       0.56156000
    34  C          0.39282000       0.88786000       0.06156000
    35  C          0.89282000       0.61214000       0.06156000
    36  C          0.10718000       0.38786000       0.56156000
    37  H          0.60040000       0.16670000       0.55500000
    38  H          0.39960000       0.83330000       0.05500000
    39  H          0.89960000       0.66670000       0.05500000
    40  H          0.10040000       0.33330000       0.55500000
    41  C          0.56027000       0.06523000       0.46615000
    42  C          0.43973000       0.93477000       0.96615000
    43  C          0.93973000       0.56523000       0.96615000
    44  C          0.06027000       0.43477000       0.46615000
    45  H          0.52350000       0.08830000       0.39400000
    46  H          0.47650000       0.91170000       0.89400000
    47  H          0.97650000       0.58830000       0.89400000
    48  H          0.02350000       0.41170000       0.39400000
    49  C          0.56636000       0.98664000       0.47535000
    50  C          0.43364000       0.01336000       0.97535000
    51  C          0.93364000       0.48664000       0.97535000
    52  C          0.06636000       0.51336000       0.47535000
    53  H          0.53110000       0.95520000       0.41060000
    54  H          0.46890000       0.04480000       0.91060000
    55  H          0.96890000       0.45520000       0.91060000
    56  H          0.03110000       0.54480000       0.41060000
    57  C          0.54199000       0.71224000       0.78865000
    58  C          0.45801000       0.28776000       0.28865000
    59  C          0.95801000       0.21224000       0.28865000
    60  C          0.04199000       0.78776000       0.78865000
    61  H          0.47590000       0.74250000       0.84730000
    62  H          0.52410000       0.25750000       0.34730000
    63  H          0.02410000       0.24250000       0.34730000
    64  H          0.97590000       0.75750000       0.84730000
    65  H          0.65210000       0.69210000       0.82410000
    66  H          0.34790000       0.30790000       0.32410000
    67  H          0.84790000       0.19210000       0.32410000
    68  H          0.15210000       0.80790000       0.82410000
    69  H          0.46750000       0.66900000       0.76170000
    70  H          0.53250000       0.33100000       0.26170000
    71  H          0.03250000       0.16900000       0.26170000
    72  H          0.96750000       0.83100000       0.76170000
    73  C          0.64817000       0.67723000       0.49365000
    74  C          0.35183000       0.32277000      -0.00635000
    75  C          0.85183000       0.17723000      -0.00635000
    76  C          0.14817000       0.82277000       0.49365000
    77  C          0.63267000       0.59493000       0.53226000
    78  C          0.36733000       0.40507000       0.03226000
    79  C          0.86733000       0.09493000       0.03226000
    80  C          0.13267000       0.90507000       0.53226000
    81  C          0.69707000       0.56893000       0.64006000
    82  C          0.30293000       0.43107000       0.14006000
    83  C          0.80293000       0.06893000       0.14006000
    84  C          0.19707000       0.93107000       0.64006000
    85  H          0.74530000       0.60440000       0.69540000
    86  H          0.25470000       0.39560000       0.19540000
    87  H          0.75470000       0.10440000       0.19540000
    88  H          0.24530000       0.89560000       0.69540000
    89  C          0.69037000       0.49083000       0.66645000
    90  C          0.30963000       0.50917000       0.16645000
    91  C          0.80963000       0.99083000       0.16645000
    92  C          0.19037000       0.00917000       0.66645000
    93  H          0.73610000       0.47310000       0.73980000
    94  H          0.26390000       0.52690000       0.23980000
    95  H          0.76390000       0.97310000       0.23980000
    96  H          0.23610000       0.02690000       0.73980000
    97  C          0.61747000       0.43773000       0.58696000
    98  C          0.38253000       0.56227000       0.08696000
    99  C          0.88253000       0.93773000       0.08696000
   100  C          0.11747000       0.06227000       0.58696000
   101  C          0.55127000       0.46514000       0.48076000
   102  C          0.44873000       0.53486000       0.98076000
   103  C          0.94873000       0.96514000       0.98076000
   104  C          0.05127000       0.03486000       0.48076000
   105  H          0.49970000       0.42990000       0.42610000
   106  H          0.50030000       0.57010000       0.92610000
   107  H          0.00030000       0.92990000       0.92610000
   108  H         -0.00030000       0.07010000       0.42610000
   109  C          0.55847000       0.54243000       0.45285000
   110  C          0.44153000       0.45757000       0.95285000
   111  C          0.94153000       0.04243000       0.95285000
   112  C          0.05847000       0.95757000       0.45285000
   113  H          0.51280000       0.56000000       0.37930000
   114  H          0.48720000       0.44000000       0.87930000
   115  H         -0.01280000       0.06000000       0.87930000
   116  H          0.01280000       0.94000000       0.37930000
   117  C          0.61379000       0.35284000       0.61607000
   118  C          0.38621000       0.64716000       0.11607000
   119  C          0.88621000       0.85284000       0.11607000
   120  C          0.11379000       0.14716000       0.61607000
   121  H          0.72350000       0.32830000       0.58700000
   122  H          0.27650000       0.67170000       0.08700000
   123  H          0.77650000       0.82830000       0.08700000
   124  H          0.22350000       0.17170000       0.58700000
   125  H          0.50970000       0.32870000       0.57830000
   126  H          0.49030000       0.67130000       0.07830000
   127  H         -0.00970000       0.82870000       0.07830000
   128  H          0.00970000       0.17130000       0.57830000
   129  H          0.60560000       0.34610000       0.70180000
   130  H          0.39440000       0.65390000       0.20180000
   131  H          0.89440000       0.84610000       0.20180000
   132  H          0.10560000       0.15390000       0.70180000
   133  N          0.62526000       0.87173000       0.59214000
   134  N          0.37474000       0.12827000       0.09214000
   135  N          0.87474000       0.37173000       0.09214000
   136  N          0.12526000       0.62827000       0.59214000
   137  N          0.58386000       0.83803000       0.70174000
   138  N          0.41614000       0.16197000       0.20174000
   139  N          0.91614000       0.33803000       0.20174000
   140  N          0.08386000       0.66197000       0.70174000
   141  O          0.69376000       0.83072000       0.40084000
   142  O          0.30624000       0.16928000       0.90084000
   143  O          0.80624000       0.33072000       0.90084000
   144  O          0.19376000       0.66928000       0.40084000
   145  H          0.69800000       0.78910000       0.36280000
   146  H          0.30200000       0.21090000       0.86280000
   147  H          0.80200000       0.28910000       0.86280000
   148  H          0.19800000       0.71090000       0.36280000
   149  O          0.67737000       0.68753000       0.38244000
   150  O          0.32263000       0.31247000       0.88244000
   151  O          0.82263000       0.18753000       0.88244000
   152  O          0.17737000       0.81247000       0.38244000
