data_VIMPAJ01
_symmetry_space_group_name_H-M    'P1'
_symmetry_Int_Tables_number       1
loop_
_symmetry_equiv_pos_site_id
_symmetry_equiv_pos_as_xyz
1 x,y,z
_cell_length_a                   15.33246
_cell_length_b                   5.12022
_cell_length_c                   18.04187
_cell_angle_alpha                90.0
_cell_angle_beta                 90.9794
_cell_angle_gamma                90.0
loop_
_atom_site_label
_atom_site_type_symbol
_atom_site_fract_x
_atom_site_fract_y
_atom_site_fract_z
     1  C          0.60756100       0.49663000       0.79679900
     2  C          0.89243900      -0.00337000       0.70320100
     3  C          0.39243900       0.50337000       0.20320100
     4  C          0.10756100       0.00337000       0.29679900
     5  C          0.60206100       0.42913000       0.87356900
     6  C          0.89793900       0.92913000       0.62643100
     7  C          0.39793900       0.57087000       0.12643100
     8  C          0.10206100       0.07087000       0.37356900
     9  C          0.53994100       0.22753000       0.87402800
    10  C          0.96005900       0.72753000       0.62597200
    11  C          0.46005900       0.77247000       0.12597200
    12  C          0.03994100       0.27247000       0.37402800
    13  C          0.45197100      -0.00343000       0.77535900
    14  C          0.04802900       0.49657000       0.72464100
    15  C          0.54802900       0.00343000       0.22464100
    16  C          0.95197100       0.50343000       0.27535900
    17  C          0.42871120       0.00913000       0.70068100
    18  C          0.07128880       0.50913000       0.79931900
    19  C          0.57128880      -0.00913000       0.29931900
    20  C          0.92871120       0.49087000       0.20068100
    21  H          0.45380000       0.13770000       0.66960000
    22  H          0.04620000       0.63770000       0.83040000
    23  H          0.54620000       0.86230000       0.33040000
    24  H          0.95380000       0.36230000       0.16960000
    25  C          0.36853120       0.83216000       0.67190100
    26  C          0.13146880       0.33216000       0.82809900
    27  C          0.63146880       0.16784000       0.32809900
    28  C          0.86853120       0.66784000       0.17190100
    29  H          0.35290000       0.83920000       0.62080000
    30  H          0.14710000       0.33920000       0.87920000
    31  H          0.64710000       0.16080000       0.37920000
    32  H          0.85290000       0.66080000       0.12080000
    33  C          0.33093110       0.64547000       0.71684100
    34  C          0.16906890       0.14547000       0.78315900
    35  C          0.66906890       0.35453000       0.28315900
    36  C          0.83093110       0.85453000       0.21684100
    37  H          0.28950000       0.52580000       0.69680000
    38  H          0.21050000       0.02580000       0.80320000
    39  H          0.71050000       0.47420000       0.30320000
    40  H          0.78950000      -0.02580000       0.19680000
    41  C          0.35442110       0.63547000       0.79103100
    42  C          0.14557890       0.13547000       0.70896900
    43  C          0.64557890       0.36453000       0.20896900
    44  C          0.85442110       0.86453000       0.29103100
    45  H          0.32870000       0.50800000       0.82210000
    46  H          0.17130000       0.00800000       0.67790000
    47  H          0.67130000       0.49200000       0.17790000
    48  H          0.82870000      -0.00800000       0.32210000
    49  C          0.41513100       0.80917000       0.82092900
    50  C          0.08486900       0.30917000       0.67907100
    51  C          0.58486900       0.19083000       0.17907100
    52  C          0.91513100       0.69083000       0.32092900
    53  H          0.43130000       0.80000000       0.87190000
    54  H          0.06870000       0.30000000       0.62810000
    55  H          0.56870000       0.20000000       0.12810000
    56  H          0.93130000       0.70000000       0.37190000
    57  C          0.65663110       0.71223000       0.75979900
    58  C          0.84336890       0.21223000       0.74020100
    59  C          0.34336890       0.28777000       0.24020100
    60  C          0.15663110       0.78777000       0.25979900
    61  H          0.71530000       0.65130000       0.74790000
    62  H          0.78470000       0.15130000       0.75210000
    63  H          0.28470000       0.34870000       0.25210000
    64  H          0.21530000       0.84870000       0.24790000
    65  H          0.66090000       0.86260000       0.79320000
    66  H          0.83910000       0.36260000       0.70680000
    67  H          0.33910000       0.13740000       0.20680000
    68  H          0.16090000       0.63740000       0.29320000
    69  H          0.62570000       0.76360000       0.71410000
    70  H          0.87430000       0.26360000       0.78590000
    71  H          0.37430000       0.23640000       0.28590000
    72  H          0.12570000       0.73640000       0.21410000
    73  C          0.63573100       0.52243000       0.94364900
    74  C          0.86426900       0.02243000       0.55635100
    75  C          0.36426900       0.47757000       0.05635100
    76  C          0.13573100      -0.02243000       0.44364900
    77  C          0.70818100       0.71223000       0.95156900
    78  C          0.79181900       0.21223000       0.54843100
    79  C          0.29181900       0.28777000       0.04843100
    80  C          0.20818100       0.78777000       0.45156900
    81  C          0.77925100       0.71263000       0.90438900
    82  C          0.72074900       0.21263000       0.59561100
    83  C          0.22074900       0.28737000       0.09561100
    84  C          0.27925100       0.78737000       0.40438900
    85  H          0.78090000       0.59300000       0.86420000
    86  H          0.71910000       0.09300000       0.63580000
    87  H          0.21910000       0.40700000       0.13580000
    88  H          0.28090000       0.90700000       0.36420000
    89  C          0.84751100       0.88613000       0.91581900
    90  C          0.65248900       0.38613000       0.58418100
    91  C          0.15248900       0.11387000       0.08418100
    92  C          0.34751100       0.61387000       0.41581900
    93  H          0.89570000       0.88310000       0.88340000
    94  H          0.60430000       0.38310000       0.61660000
    95  H          0.10430000       0.11690000       0.11660000
    96  H          0.39570000       0.61690000       0.38340000
    97  C          0.84665100       0.06483000       0.97386900
    98  C          0.65334900       0.56483000       0.52613100
    99  C          0.15334900       0.93517000       0.02613100
   100  C          0.34665100       0.43517000       0.47386900
   101  C          0.77529110       0.06293000       0.02090900
   102  C          0.72470890       0.56293000       0.47909100
   103  C          0.22470890       0.93707000       0.97909100
   104  C          0.27529110       0.43707000       0.52090900
   105  H          0.77310000       0.18450000       0.06060000
   106  H          0.72690000       0.68450000       0.43940000
   107  H          0.22690000       0.81550000       0.93940000
   108  H          0.27310000       0.31550000       0.56060000
   109  C          0.70781100       0.88713000       0.01069900
   110  C          0.79218900       0.38713000       0.48930100
   111  C          0.29218900       0.11287000       0.98930100
   112  C          0.20781100       0.61287000       0.51069900
   113  H          0.66080000       0.88550000       0.04430000
   114  H          0.83920000       0.38550000       0.45570000
   115  H          0.33920000       0.11450000       0.95570000
   116  H          0.16080000       0.61450000       0.54430000
   117  C          0.92079120       0.25404000       0.98648110
   118  C          0.57920880       0.75404000       0.51351890
   119  C          0.07920880       0.74596000       0.01351890
   120  C          0.42079120       0.24596000       0.48648110
   121  H          0.95590000       0.19780000       0.02950000
   122  H          0.54410000       0.69780000       0.47050000
   123  H          0.04410000       0.80220000       0.97050000
   124  H          0.45590000       0.30220000       0.52950000
   125  H          0.89730000       0.42880000      -0.00440000
   126  H          0.60270000       0.92880000       0.50440000
   127  H          0.10270000       0.57120000       0.00440000
   128  H          0.39730000       0.07120000       0.49560000
   129  H          0.95740000       0.25840000       0.94250000
   130  H          0.54260000       0.75840000       0.55750000
   131  H          0.04260000       0.74160000       0.05750000
   132  H          0.45740000       0.24160000       0.44250000
   133  O          0.50933700       0.10552000       0.93185600
   134  O          0.99066300       0.60552000       0.56814400
   135  O          0.49066300       0.89448000       0.06814400
   136  O          0.00933700       0.39448000       0.43185600
   137  H          0.53280000       0.16590000       0.97060000
   138  H          0.96720000       0.66590000       0.52940000
   139  H          0.46720000       0.83410000       0.02940000
   140  H          0.03280000       0.33410000       0.47060000
   141  O          0.60199700       0.43672000       0.00209600
   142  O          0.89800300       0.93672000       0.49790400
   143  O          0.39800300       0.56328000      -0.00209600
   144  O          0.10199700       0.06328000       0.50209600
   145  N          0.51446800       0.17853000       0.80378700
   146  N          0.98553200       0.67853000       0.69621300
   147  N          0.48553200       0.82147000       0.19621300
   148  N          0.01446800       0.32147000       0.30378700
   149  N          0.55629900       0.34873000       0.75532700
   150  N          0.94370100       0.84873000       0.74467300
   151  N          0.44370100       0.65127000       0.24467300
   152  N          0.05629900       0.15127000       0.25532700
