data_VIPKIO04
_symmetry_space_group_name_H-M    'P1'
_symmetry_Int_Tables_number       1
loop_
_symmetry_equiv_pos_site_id
_symmetry_equiv_pos_as_xyz
1 x,y,z
_cell_length_a                   3.66085
_cell_length_b                   14.5502
_cell_length_c                   5.06468
_cell_angle_alpha                90.0
_cell_angle_beta                 119.0069
_cell_angle_gamma                90.0
loop_
_atom_site_label
_atom_site_type_symbol
_atom_site_fract_x
_atom_site_fract_y
_atom_site_fract_z
     1  C          0.08766000       0.95236870       0.50204000
     2  C          0.91234000       0.45236870      -0.00204000
     3  C          0.91234000       0.04763130       0.49796000
     4  C          0.08766000       0.54763130       0.00204000
     5  N          0.33357000       0.81508880       0.79785000
     6  N          0.66643000       0.31508880       0.70215000
     7  N          0.66643000       0.18491120       0.20215000
     8  N          0.33357000       0.68491120       0.29785000
     9  N          0.19255000       0.90683890       0.75363000
    10  N          0.80745000       0.40683890       0.74637000
    11  N          0.80745000       0.09316110       0.24637000
    12  N          0.19255000       0.59316110       0.25363000
    13  H          0.17420000       0.93430000       0.89710000
    14  H          0.82580000       0.43430000       0.60290000
    15  H          0.82580000       0.06570000       0.10290000
    16  H          0.17420000       0.56570000       0.39710000
    17  O          0.11975000       0.92152100       0.28703000
    18  O          0.88025000       0.42152100       0.21297000
    19  O          0.88025000       0.07847900       0.71297000
    20  O          0.11975000       0.57847900       0.78703000
    21  H          0.61911000       0.81408200       0.92470000
    22  H          0.38089000       0.31408200       0.57530000
    23  H          0.38089000       0.18591800       0.07530000
    24  H          0.61911000       0.68591800       0.42470000
    25  H          0.28880000       0.79258200       0.62460000
    26  H          0.71120000       0.29258200       0.87540000
    27  H          0.71120000       0.20741800       0.37540000
    28  H          0.28880000       0.70741800       0.12460000
