data_VIPKIO02
_symmetry_space_group_name_H-M    'P1'
_symmetry_Int_Tables_number       1
loop_
_symmetry_equiv_pos_site_id
_symmetry_equiv_pos_as_xyz
1 x,y,z
_cell_length_a                   3.7624
_cell_length_b                   11.6525
_cell_length_c                   5.6192
_cell_angle_alpha                90.0
_cell_angle_beta                 92.7935
_cell_angle_gamma                90.0
loop_
_atom_site_label
_atom_site_type_symbol
_atom_site_fract_x
_atom_site_fract_y
_atom_site_fract_z
     1  C          0.54841100       0.05803000       0.06367000
     2  C          0.45158900       0.55803000       0.43633000
     3  C          0.45158900       0.94197000       0.93633000
     4  C          0.54841100       0.44197000       0.56367000
     5  N          0.89611000       0.13543000       0.41297000
     6  N          0.10389000       0.63543000       0.08703000
     7  N          0.10389000       0.86457000       0.58703000
     8  N          0.89611000       0.36457000       0.91297000
     9  N          0.75901000       0.04193000       0.26207000
    10  N          0.24099000       0.54193000       0.23793000
    11  N          0.24099000       0.95807000       0.73793000
    12  N          0.75901000       0.45807000       0.76207000
    13  H          0.84810000       0.97365900       0.31867800
    14  H          0.15190000       0.47365900       0.18132200
    15  H          0.15190000       0.02634100       0.68132200
    16  H          0.84810000       0.52634100       0.81867800
    17  O          0.43339000       0.15232000      -0.01216000
    18  O          0.56661000       0.65232000       0.51216000
    19  O          0.56661000       0.84768000       0.01216000
    20  O          0.43339000       0.34768000       0.48784000
    21  H          0.71312000       0.16973700       0.44808200
    22  H          0.28688000       0.66973700       0.05191800
    23  H          0.28688000       0.83026300       0.55191800
    24  H          0.71312000       0.33026300       0.94808200
    25  H          0.07725000       0.17226500       0.30817000
    26  H          0.92275000       0.67226500       0.19183000
    27  H          0.92275000       0.82773500       0.69183000
    28  H          0.07725000       0.32773500       0.80817000
