data_VIPKIO03
_symmetry_space_group_name_H-M    'P1'
_symmetry_Int_Tables_number       1
loop_
_symmetry_equiv_pos_site_id
_symmetry_equiv_pos_as_xyz
1 x,y,z
_cell_length_a                   5.07954
_cell_length_b                   14.667914
_cell_length_c                   7.03457
_cell_angle_alpha                90.0
_cell_angle_beta                 114.1606
_cell_angle_gamma                90.0
loop_
_atom_site_label
_atom_site_type_symbol
_atom_site_fract_x
_atom_site_fract_y
_atom_site_fract_z
     1  C          0.16364000       0.84286850       0.15913000
     2  C          0.83636000       0.34286850       0.34087000
     3  C          0.83636000       0.15713150       0.84087000
     4  C          0.16364000       0.65713150       0.65913000
     5  C          0.21514000       0.74151830       0.14484000
     6  C          0.78486000       0.24151830       0.35516000
     7  C          0.78486000       0.25848170       0.85516000
     8  C          0.21514000       0.75848170       0.64484000
     9  N          0.38764000       0.98947850       0.18574000
    10  N          0.61236000       0.48947850       0.31426000
    11  N          0.61236000       0.01052150       0.81426000
    12  N          0.38764000       0.51052150       0.68574000
    13  N          0.37854000       0.89363870       0.16193000
    14  N          0.62146000       0.39363870       0.33807000
    15  N          0.62146000       0.10636130       0.83807000
    16  N          0.37854000       0.60636130       0.66193000
    17  H          0.52110000       0.86720000       0.14860000
    18  H          0.47890000       0.36720000       0.35140000
    19  H          0.47890000       0.13280000       0.85140000
    20  H          0.52110000       0.63280000       0.64860000
    21  N          0.00024000       0.68881870       0.13863000
    22  N         -0.00024000       0.18881870       0.36137000
    23  N         -0.00024000       0.31118130       0.86137000
    24  N          0.00024000       0.81118130       0.63863000
    25  H          0.85040000       0.71380000       0.14420000
    26  H          0.14960000       0.21380000       0.35580000
    27  H          0.14960000       0.28620000       0.85580000
    28  H          0.85040000       0.78620000       0.64420000
    29  N          0.00835000       0.59270860       0.12304000
    30  N         -0.00835000       0.09270860       0.37696000
    31  N         -0.00835000       0.40729140       0.87696000
    32  N          0.00835000       0.90729140       0.62304000
    33  O          0.94007000       0.87249890       0.16773000
    34  O          0.05993000       0.37249890       0.33227000
    35  O          0.05993000       0.12750110       0.83227000
    36  O          0.94007000       0.62750110       0.66773000
    37  O          0.43983000       0.71234880       0.13943000
    38  O          0.56017000       0.21234880       0.36057000
    39  O          0.56017000       0.28765120       0.86057000
    40  O          0.43983000       0.78765120       0.63943000
    41  H          0.27870000       0.01620000       0.06550000
    42  H          0.72130000       0.51620000       0.43450000
    43  H          0.72130000       0.98380000       0.93450000
    44  H          0.27870000       0.48380000       0.56550000
    45  H          0.30160000       0.00420000       0.27650000
    46  H          0.69840000       0.50420000       0.22350000
    47  H          0.69840000      -0.00420000       0.72350000
    48  H          0.30160000       0.49580000       0.77650000
    49  H          0.19280000       0.57680000       0.19550000
    50  H          0.80720000       0.07680000       0.30450000
    51  H          0.80720000       0.42320000       0.80450000
    52  H          0.19280000       0.92320000       0.69550000
    53  H         -0.01970000       0.58280000      -0.01560000
    54  H          0.01970000       0.08280000       0.51560000
    55  H          0.01970000       0.41720000       0.01560000
    56  H         -0.01970000       0.91720000       0.48440000
