data_VIPKIO
_symmetry_space_group_name_H-M    'P1'
_symmetry_Int_Tables_number       1
loop_
_symmetry_equiv_pos_site_id
_symmetry_equiv_pos_as_xyz
1 x,y,z
_cell_length_a                   3.61883
_cell_length_b                   6.8412
_cell_length_c                   9.1332
_cell_angle_alpha                90.0
_cell_angle_beta                 99.231
_cell_angle_gamma                90.0
loop_
_atom_site_label
_atom_site_type_symbol
_atom_site_fract_x
_atom_site_fract_y
_atom_site_fract_z
     1  C          0.58523000       0.93158000       0.06323900
     2  C          0.41477000       0.43158000       0.43676100
     3  C          0.41477000       0.06842000       0.93676100
     4  C          0.58523000       0.56842000       0.56323900
     5  O          0.54352000       0.75259000       0.05431800
     6  O          0.45648000       0.25259000       0.44568200
     7  O          0.45648000       0.24741000       0.94568200
     8  O          0.54352000       0.74741000       0.55431800
     9  N          0.76812000       0.02871000       0.17713900
    10  N          0.23188000       0.52871000       0.32286100
    11  N          0.23188000       0.97129000       0.82286100
    12  N          0.76812000       0.47129000       0.67713900
    13  N          0.95422000       0.93039000       0.30443800
    14  N          0.04578000       0.43039000       0.19556200
    15  N          0.04578000       0.06961000       0.69556200
    16  N          0.95422000       0.56961000       0.80443800
    17  H          0.78940000       0.15520000       0.17210000
    18  H          0.21060000       0.65520000       0.32790000
    19  H          0.21060000       0.84480000       0.82790000
    20  H          0.78940000       0.34480000       0.67210000
    21  H          0.78840000       0.90380000       0.36510000
    22  H          0.21160000       0.40380000       0.13490000
    23  H          0.21160000       0.09620000       0.63490000
    24  H          0.78840000       0.59620000       0.86510000
    25  H          0.10740000       0.02120000       0.35210000
    26  H          0.89260000       0.52120000       0.14790000
    27  H          0.89260000       0.97880000       0.64790000
    28  H          0.10740000       0.47880000       0.85210000
