data_VIPKIO05
_symmetry_space_group_name_H-M    'P1'
_symmetry_Int_Tables_number       1
loop_
_symmetry_equiv_pos_site_id
_symmetry_equiv_pos_as_xyz
1 x,y,z
_cell_length_a                   5.36423
_cell_length_b                   3.84122
_cell_length_c                   12.31916
_cell_angle_alpha                90.0
_cell_angle_beta                 108.9993
_cell_angle_gamma                90.0
loop_
_atom_site_label
_atom_site_type_symbol
_atom_site_fract_x
_atom_site_fract_y
_atom_site_fract_z
     1  C          0.10943000       0.90247000       0.48594890
     2  C          0.89057000       0.40247000       0.01405110
     3  C          0.89057000       0.09753000       0.51405110
     4  C          0.10943000       0.59753000       0.98594890
     5  N          0.26853000       0.74716000       0.33221880
     6  N          0.73147000       0.24716000       0.16778120
     7  N          0.73147000       0.25284000       0.66778120
     8  N          0.26853000       0.75284000       0.83221880
     9  N          0.09392000       0.92967000       0.37719900
    10  N          0.90608000       0.42967000       0.12280100
    11  N          0.90608000       0.07033000       0.62280100
    12  N          0.09392000       0.57033000       0.87719900
    13  H         -0.02510000       0.06160000       0.33240000
    14  H          0.02510000       0.56160000       0.16760000
    15  H          0.02510000       0.93840000       0.66760000
    16  H         -0.02510000       0.43840000       0.83240000
    17  O          0.27932000       0.73527000       0.55949100
    18  O          0.72068000       0.23527000       0.94050900
    19  O          0.72068000       0.26473000       0.44050900
    20  O          0.27932000       0.76473000       0.05949100
    21  H          0.40050000       0.89540000       0.33408300
    22  H          0.59950000       0.39540000       0.16591700
    23  H          0.59950000       0.10460000       0.66591700
    24  H          0.40050000       0.60460000       0.83408300
    25  H          0.35040000       0.59440000       0.38288100
    26  H          0.64960000       0.09440000       0.11711900
    27  H          0.64960000       0.40560000       0.61711900
    28  H          0.35040000       0.90560000       0.88288100
