data_VIRVOH03
_symmetry_space_group_name_H-M    'P1'
_symmetry_Int_Tables_number       1
loop_
_symmetry_equiv_pos_site_id
_symmetry_equiv_pos_as_xyz
1 x,y,z
_cell_length_a                   4.78693
_cell_length_b                   10.79518
_cell_length_c                   12.76309
_cell_angle_alpha                109.5713
_cell_angle_beta                 91.0673
_cell_angle_gamma                91.4703
loop_
_atom_site_label
_atom_site_type_symbol
_atom_site_fract_x
_atom_site_fract_y
_atom_site_fract_z
     1  O          0.10096000       0.56973000       0.52522000
     2  H          0.21490000       0.56440000       0.57420000
     3  N          0.37306000       0.63633000       0.71063000
     4  C         -0.01592000       0.52104000       0.89724000
     5  H          0.12190000       0.49330000       0.93830000
     6  C          0.88478000       0.64824000       0.93803000
     7  H          0.95680000       0.70730000       0.00700000
     8  C          0.68058000       0.68974000       0.87863000
     9  H          0.61240000       0.77620000       0.90700000
    10  C          0.57807000       0.60184000       0.77683000
    11  C          0.22717000       0.74484000       0.74173000
    12  H          0.26190000       0.80730000       0.81380000
    13  C          0.02428000       0.77044000       0.67243000
    14  C          0.86243000       0.88914000       0.71033000
    15  C          0.66413000       0.91384000       0.63653000
    16  C          0.50542000       0.02884000       0.67154000
    17  H          0.37400000       0.04450000       0.62110000
    18  C          0.53872000       0.11754000       0.77694000
    19  H          0.43420000       0.19520000       0.79910000
    20  C          0.61931000       0.81844000       0.52693000
    21  H          0.48400000       0.83430000       0.47790000
    22  C          0.76341000       0.70754000       0.49203000
    23  H          0.72730000       0.64730000       0.41900000
    24  C         -0.02838000       0.67694000       0.56203000
    25  C          0.72892000       0.09254000       0.85184000
    26  H          0.74830000       0.15270000       0.92560000
    27  C          0.88862000       0.98194000       0.82003000
    28  H          0.01760000       0.96760000       0.87190000
    29  C          0.67778000       0.47514000       0.73563000
    30  H          0.60780000       0.41590000       0.66630000
    31  C          0.87958000       0.43514000       0.79604000
    32  H          0.94650000       0.34840000       0.76790000
    33  O          0.79006000       0.97497000       0.08382000
    34  H          0.87090000       0.04710000       0.08960000
    35  N          0.93886000       0.21573000       0.16823000
    36  C          0.49238000       0.51434000       0.14644000
    37  H          0.61790000       0.58110000       0.14050000
    38  C          0.46758000       0.39334000       0.06123000
    39  H          0.57750000       0.37670000      -0.00290000
    40  C          0.28067000       0.29674000       0.07043000
    41  H          0.26180000       0.21460000       0.01180000
    42  C          0.12097000       0.31924000       0.16473000
    43  C          0.75147000       0.22624000       0.24523000
    44  H          0.72910000       0.30940000       0.30080000
    45  C          0.58358000       0.11804000       0.24743000
    46  C          0.38198000       0.13184000       0.33423000
    47  C          0.22688000       0.01974000       0.33613000
    48  C          0.03068000       0.03004000       0.41963000
    49  H          0.92930000       0.95360000       0.42060000
    50  C         -0.01558000       0.14934000       0.49964000
    51  H          0.85310000       0.15530000       0.55580000
    52  C          0.27199000       0.89536000       0.25224000
    53  H          0.16960000       0.81990000       0.25470000
    54  C          0.45449000       0.88146000       0.16994000
    55  H          0.47550000       0.79720000       0.11560000
    56  C          0.61688000      -0.00774000       0.16343000
    57  C          0.13168000       0.26074000       0.49743000
    58  H          0.09590000       0.34350000       0.55140000
    59  C          0.32928000       0.25334000       0.41833000
    60  H          0.43130000       0.33070000       0.42000000
    61  C          0.14808000       0.44074000       0.25133000
    62  H          0.04210000       0.45700000       0.31640000
    63  C          0.33248000       0.53674000       0.23994000
    64  H          0.34920000       0.61950000       0.29770000
