data_VIRVOH04
_symmetry_space_group_name_H-M    'P1'
_symmetry_Int_Tables_number       1
loop_
_symmetry_equiv_pos_site_id
_symmetry_equiv_pos_as_xyz
1 x,y,z
_cell_length_a                   14.1392
_cell_length_b                   5.45829
_cell_length_c                   17.5513
_cell_angle_alpha                90.0
_cell_angle_beta                 113.0912
_cell_angle_gamma                90.0
loop_
_atom_site_label
_atom_site_type_symbol
_atom_site_fract_x
_atom_site_fract_y
_atom_site_fract_z
     1  N          0.18291120       0.35003000       0.01497900
     2  N          0.31708880       0.85003000       0.48502100
     3  N          0.81708880       0.64997000       0.98502100
     4  N          0.68291120       0.14997000       0.51497900
     5  C          0.20092140       0.66953000       0.92827110
     6  C          0.29907860       0.16953000       0.57172890
     7  C          0.79907860       0.33047000       0.07172890
     8  C          0.70092140       0.83047000       0.42827110
     9  O          0.02965100       0.59903000       0.91783900
    10  O          0.47034900       0.09903000       0.58216100
    11  O          0.97034900       0.40097000       0.08216100
    12  O          0.52965100       0.90097000       0.41783900
    13  H          0.06030000       0.48840000       0.94950000
    14  H          0.43970000      -0.01160000       0.55050000
    15  H          0.93970000       0.51160000       0.05050000
    16  H          0.56030000       0.01160000       0.44950000
    17  C          0.22342130       0.17303000       0.07870110
    18  C          0.27657870       0.67303000       0.42129890
    19  C          0.77657870       0.82697000       0.92129890
    20  C          0.72342130       0.32697000       0.57870110
    21  C          0.15780150      -0.01473000       0.08097120
    22  C          0.34219850       0.48527000       0.41902880
    23  C          0.84219850       0.01473000       0.91902880
    24  C          0.65780150       0.51473000       0.58097120
    25  C          0.26865140       0.81573000       0.90233110
    26  C          0.23134860       0.31573000       0.59766890
    27  C          0.73134860       0.18427000       0.09766890
    28  C          0.76865140       0.68427000       0.40233110
    29  C          0.09425150       0.72503000       0.89779120
    30  C          0.40574850       0.22503000       0.60220880
    31  C          0.90574850       0.27497000       0.10220880
    32  C          0.59425150       0.77497000       0.39779120
    33  C          0.32296150       0.18204000       0.13857130
    34  C          0.17703850       0.68204000       0.36142870
    35  C          0.67703850       0.81796000       0.86142870
    36  C          0.82296150       0.31796000       0.63857130
    37  C          0.05652170       0.93234000       0.84447130
    38  C          0.44347830       0.43234000       0.65552870
    39  C          0.94347830       0.06766000       0.15552870
    40  C          0.55652170       0.56766000       0.34447130
    41  C          0.24051160       0.47943000       0.98742120
    42  C          0.25948840      -0.02057000       0.51257880
    43  C          0.75948840       0.52057000       0.01257880
    44  C          0.74051160       0.02057000       0.48742120
    45  C          0.22767160       0.02193000       0.85090120
    46  C          0.27232840       0.52193000       0.64909880
    47  C          0.77232840      -0.02193000       0.14909880
    48  C          0.72767160       0.47807000       0.35090120
    49  C          0.12044170       0.07294000       0.82330130
    50  C          0.37955830       0.57294000       0.67669870
    51  C          0.87955830       0.92706000       0.17669870
    52  C          0.62044170       0.42706000       0.32330130
    53  C          0.37390170       0.76634000       0.92499140
    54  C          0.12609830       0.26634000       0.57500860
    55  C          0.62609830       0.23366000       0.07500860
    56  C          0.87390170       0.73366000       0.42499140
    57  C          0.29272000       0.17104000       0.82677140
    58  C          0.20728000       0.67104000       0.67322860
    59  C          0.70728000       0.82896000       0.17322860
    60  C          0.79272000       0.32896000       0.32677140
    61  C          0.19211150       0.80556000       0.14107130
    62  C          0.30788850       0.30556000       0.35892870
    63  C          0.80788850       0.19444000       0.85892870
    64  C          0.69211150       0.69444000       0.64107130
    65  C          0.29179160       0.81186000       0.19959130
    66  C          0.20820840       0.31186000       0.30040870
    67  C          0.70820840       0.18814000       0.80040870
    68  C          0.79179160       0.68814000       0.69959130
    69  C          0.35689160      -0.00014000       0.19834140
    70  C          0.14310840       0.49986000       0.30165860
    71  C          0.64310840       0.00014000       0.80165860
    72  C          0.85689160       0.50014000       0.69834140
    73  C          0.43449190       0.91315000       0.89966150
    74  C          0.06550810       0.41315000       0.60033850
    75  C          0.56550810       0.08685000       0.10033850
    76  C          0.93449190       0.58685000       0.39966150
    77  C          0.39452000       0.11844000       0.85064160
    78  C          0.10548000       0.61844000       0.64935840
    79  C          0.60548000       0.88156000       0.14935840
    80  C          0.89452000       0.38156000       0.35064160
    81  H          0.08731500      -0.01530000       0.03891200
    82  H          0.41268500       0.48470000       0.46108800
    83  H          0.91268500       0.01530000       0.96108800
    84  H          0.58731500       0.51530000       0.53891200
    85  H          0.36791500       0.32140000       0.14121200
    86  H          0.13208500       0.82140000       0.35878800
    87  H          0.63208500       0.67860000       0.85878800
    88  H          0.86791500       0.17860000       0.64121200
    89  H          0.14481600       0.67660000       0.14341300
    90  H          0.35518400       0.17660000       0.35658700
    91  H          0.85518400       0.32340000       0.85658700
    92  H          0.64481600       0.82340000       0.64341300
    93  H          0.31291500       0.44040000       0.00971200
    94  H          0.18708500       0.94040000       0.49028800
    95  H          0.68708500       0.55960000       0.99028800
    96  H          0.81291500       0.05960000       0.50971200
    97  H          0.42571600       0.01440000       0.23901200
    98  H          0.07428400       0.51440000       0.26098800
    99  H          0.57428400      -0.01440000       0.76098800
   100  H          0.92571600       0.48560000       0.73901200
   101  H          0.40611600       0.63340000       0.96101300
   102  H          0.09388400       0.13340000       0.53898700
   103  H          0.59388400       0.36660000       0.03898700
   104  H          0.90611600       0.86660000       0.46101300
   105  H          0.31611600       0.69160000       0.24281400
   106  H          0.18388400       0.19160000       0.25718600
   107  H          0.68388400       0.30840000       0.75718600
   108  H          0.81611600       0.80840000       0.74281400
   109  H          0.98480000       0.96940000       0.82651400
   110  H          0.51520000       0.46940000       0.67348600
   111  H          0.01520000       0.03060000       0.17348600
   112  H          0.48480000       0.53060000       0.32651400
   113  H          0.09281600       0.21340000       0.78871300
   114  H          0.40718400       0.71340000       0.71128700
   115  H          0.90718400       0.78660000       0.21128700
   116  H          0.59281600       0.28660000       0.28871300
   117  H          0.26481800       0.31340000       0.79641400
   118  H          0.23518200       0.81340000       0.70358600
   119  H          0.73518200       0.68660000       0.20358600
   120  H          0.76481800       0.18660000       0.29641400
   121  H          0.43491800       0.22050000       0.83161500
   122  H          0.06508200       0.72050000       0.66838500
   123  H          0.56508200       0.77950000       0.16838500
   124  H          0.93491800       0.27950000       0.33161500
   125  H          0.50841800       0.87940000       0.92101400
   126  H         -0.00841800       0.37940000       0.57898600
   127  H          0.49158200       0.12060000       0.07898600
   128  H          0.00841800       0.62060000       0.42101400
