data_VIRVOH
_symmetry_space_group_name_H-M    'P1'
_symmetry_Int_Tables_number       1
loop_
_symmetry_equiv_pos_site_id
_symmetry_equiv_pos_as_xyz
1 x,y,z
_cell_length_a                   7.3801
_cell_length_b                   12.0962
_cell_length_c                   14.1572
_cell_angle_alpha                90.0
_cell_angle_beta                 90.0
_cell_angle_gamma                89.891
loop_
_atom_site_label
_atom_site_type_symbol
_atom_site_fract_x
_atom_site_fract_y
_atom_site_fract_z
     1  O          0.78633000       0.98722000       0.14951000
     2  O          0.71367000       0.01278000       0.64951000
     3  O          0.21367000       0.01278000       0.85049000
     4  O          0.28633000       0.98722000       0.35049000
     5  N          0.72393000       0.11521000       0.28931000
     6  N          0.77607000       0.88479000       0.78931000
     7  N          0.27607000       0.88479000       0.71069000
     8  N          0.22393000       0.11521000       0.21069000
     9  C          0.76564000       0.03432000       0.34512000
    10  C          0.73436000       0.96568000       0.84512000
    11  C          0.23436000       0.96568000       0.65488000
    12  C          0.26564000       0.03432000       0.15488000
    13  C          0.82213000       0.92823000       0.31032000
    14  C          0.67787000       0.07177000       0.81032000
    15  C          0.17787000       0.07177000       0.68968000
    16  C          0.32213000       0.92823000       0.18968000
    17  C          0.82503000       0.90862000       0.21262000
    18  C          0.67497000       0.09138000       0.71262000
    19  C          0.17497000       0.09138000       0.78738000
    20  C          0.32503000       0.90862000       0.28738000
    21  C          0.87044000       0.80292000       0.17732000
    22  C          0.62956000       0.19708000       0.67732000
    23  C          0.12956000       0.19708000       0.82268000
    24  C          0.37044000       0.80292000       0.32268000
    25  C          0.91474000       0.72002000       0.23692000
    26  C          0.58526000       0.27998000       0.73692000
    27  C          0.08526000       0.27998000       0.76308000
    28  C          0.41474000       0.72002000       0.26308000
    29  C          0.92113000       0.73552000       0.33622000
    30  C          0.57887000       0.26448000       0.83622000
    31  C          0.07887000       0.26448000       0.66378000
    32  C          0.42113000       0.73552000       0.16378000
    33  C          0.87513000       0.84072000       0.37402000
    34  C          0.62487000       0.15928000       0.87402000
    35  C          0.12487000       0.15928000       0.62598000
    36  C          0.37513000       0.84072000       0.12598000
    37  C          0.88874000       0.85492000       0.47282000
    38  C          0.61126000       0.14508000       0.97282000
    39  C          0.11126000       0.14508000       0.52718000
    40  C          0.38874000       0.85492000       0.02718000
    41  C          0.94594000       0.77042000       0.53012000
    42  C          0.55406000       0.22958000       0.03012000
    43  C          0.05406000       0.22958000       0.46988000
    44  C          0.44594000       0.77042000       0.96988000
    45  C         -0.00876000       0.66692000       0.49232000
    46  C          0.50876000       0.33308000      -0.00768000
    47  C          0.00876000       0.33308000       0.50768000
    48  C          0.49124000       0.66692000       0.00768000
    49  C          0.97794000       0.65022000       0.39732000
    50  C          0.52206000       0.34978000       0.89732000
    51  C          0.02206000       0.34978000       0.60268000
    52  C          0.47794000       0.65022000       0.10268000
    53  C          0.66213000       0.21752000       0.32662000
    54  C          0.83787000       0.78248000       0.82662000
    55  C          0.33787000       0.78248000       0.67338000
    56  C          0.16213000       0.21752000       0.17338000
    57  C          0.71214000       0.31312000       0.27852000
    58  C          0.78786000       0.68688000       0.77852000
    59  C          0.28786000       0.68688000       0.72148000
    60  C          0.21214000       0.31312000       0.22148000
    61  C          0.65574000       0.41552000       0.31152000
    62  C          0.84426000       0.58448000       0.81152000
    63  C          0.34426000       0.58448000       0.68848000
    64  C          0.15574000       0.41552000       0.18848000
    65  C          0.54964000       0.42342000       0.39112000
    66  C          0.95036000       0.57658000       0.89112000
    67  C          0.45036000       0.57658000       0.60888000
    68  C          0.04964000       0.42342000       0.10888000
    69  C          0.49784000       0.32852000       0.43822000
    70  C          0.00216000       0.67148000       0.93822000
    71  C          0.50216000       0.67148000       0.56178000
    72  C         -0.00216000       0.32852000       0.06178000
    73  C          0.55313000       0.22532000       0.40612000
    74  C          0.94687000       0.77468000       0.90612000
    75  C          0.44687000       0.77468000       0.59388000
    76  C          0.05313000       0.22532000       0.09388000
    77  H          0.75640000       0.05120000       0.17820000
    78  H          0.74360000       0.94880000       0.67820000
    79  H          0.24360000       0.94880000       0.82180000
    80  H          0.25640000       0.05120000       0.32180000
    81  H          0.75630000       0.04620000       0.41510000
    82  H          0.74370000       0.95380000       0.91510000
    83  H          0.24370000       0.95380000       0.58490000
    84  H          0.25630000       0.04620000       0.08490000
    85  H          0.85830000       0.79220000       0.11220000
    86  H          0.64170000       0.20780000       0.61220000
    87  H          0.14170000       0.20780000       0.88780000
    88  H          0.35830000       0.79220000       0.38780000
    89  H          0.94430000       0.64420000       0.21410000
    90  H          0.55570000       0.35580000       0.71410000
    91  H          0.05570000       0.35580000       0.78590000
    92  H          0.44430000       0.64420000       0.28590000
    93  H          0.85430000       0.92920000       0.50210000
    94  H          0.64570000       0.07080000       0.00210000
    95  H          0.14570000       0.07080000       0.49790000
    96  H          0.35430000       0.92920000      -0.00210000
    97  H          0.95230000       0.78520000       0.59820000
    98  H          0.54770000       0.21480000       0.09820000
    99  H          0.04770000       0.21480000       0.40180000
   100  H          0.45230000       0.78520000       0.90180000
   101  H          0.03330000       0.60920000       0.53220000
   102  H          0.46670000       0.39080000       0.03220000
   103  H          0.96670000       0.39080000       0.46780000
   104  H          0.53330000       0.60920000       0.96780000
   105  H          0.00230000       0.57420000       0.37120000
   106  H          0.49770000       0.42580000       0.87120000
   107  H         -0.00230000       0.42580000       0.62880000
   108  H          0.50230000       0.57420000       0.12880000
   109  H          0.78330000       0.30620000       0.22110000
   110  H          0.71670000       0.69380000       0.72110000
   111  H          0.21670000       0.69380000       0.77890000
   112  H          0.28330000       0.30620000       0.27890000
   113  H          0.68930000       0.48120000       0.27720000
   114  H          0.81070000       0.51880000       0.77720000
   115  H          0.31070000       0.51880000       0.72280000
   116  H          0.18930000       0.48120000       0.22280000
   117  H          0.50730000       0.50020000       0.41110000
   118  H         -0.00730000       0.49980000       0.91110000
   119  H          0.49270000       0.49980000       0.58890000
   120  H          0.00730000       0.50020000       0.08890000
   121  H          0.41530000       0.33320000       0.49320000
   122  H          0.08470000       0.66680000      -0.00680000
   123  H          0.58470000       0.66680000       0.50680000
   124  H          0.91530000       0.33320000       0.00680000
   125  H          0.51030000       0.15820000       0.43710000
   126  H         -0.01030000       0.84180000       0.93710000
   127  H          0.48970000       0.84180000       0.56290000
   128  H          0.01030000       0.15820000       0.06290000
