data_VITDEL
_symmetry_space_group_name_H-M    'P1'
_symmetry_Int_Tables_number       1
loop_
_symmetry_equiv_pos_site_id
_symmetry_equiv_pos_as_xyz
1 x,y,z
_cell_length_a                   7.63275
_cell_length_b                   9.55616
_cell_length_c                   11.28997
_cell_angle_alpha                90.0
_cell_angle_beta                 104.0953
_cell_angle_gamma                90.0
loop_
_atom_site_label
_atom_site_type_symbol
_atom_site_fract_x
_atom_site_fract_y
_atom_site_fract_z
     1  O          0.93737150       0.86449110       0.40596900
     2  O          0.06262850       0.36449110       0.09403100
     3  O          0.06262850       0.13550890       0.59403100
     4  O          0.93737150       0.63550890       0.90596900
     5  O          0.90744160       0.88984120       0.59702900
     6  O          0.09255840       0.38984120       0.90297100
     7  O          0.09255840       0.11015880       0.40297100
     8  O          0.90744160       0.61015880       0.09702900
     9  H          0.96240000       0.97930000       0.59120000
    10  H          0.03760000       0.47930000       0.90880000
    11  H          0.03760000       0.02070000       0.40880000
    12  H          0.96240000       0.52070000       0.09120000
    13  N          0.56587180       0.34979130       0.20286110
    14  N          0.43412820       0.84979130       0.29713890
    15  N          0.43412820       0.65020870       0.79713890
    16  N          0.56587180       0.15020870       0.70286110
    17  N          0.50663180       0.46363140       0.15900110
    18  N          0.49336820       0.96363140       0.34099890
    19  N          0.49336820       0.53636860       0.84099890
    20  N          0.50663180       0.03636860       0.65900110
    21  N          0.43612000       0.56102160       0.11360130
    22  N          0.56388000       0.06102160       0.38639870
    23  N          0.56388000       0.43897840       0.88639870
    24  N          0.43612000       0.93897840       0.61360130
    25  C          0.82040180       0.67382140       0.49777120
    26  C          0.17959820       0.17382140       0.00222880
    27  C          0.17959820       0.32617860       0.50222880
    28  C          0.82040180       0.82617860      -0.00222880
    29  C          0.81239180       0.58766140       0.39627120
    30  C          0.18760820       0.08766140       0.10372880
    31  C          0.18760820       0.41233860       0.60372880
    32  C          0.81239180       0.91233860       0.89627120
    33  H          0.84550700       0.62398100       0.32646500
    34  H          0.15449300       0.12398100       0.17353500
    35  H          0.15449300       0.37601900       0.67353500
    36  H          0.84550700       0.87601900       0.82646500
    37  C          0.75637180       0.44948150       0.39698120
    38  C          0.24362820       0.94948150       0.10301880
    39  C          0.24362820       0.55051850       0.60301880
    40  C          0.75637180       0.05051850       0.89698120
    41  C          0.70877190       0.39726150       0.50081130
    42  C          0.29122810       0.89726150      -0.00081130
    43  C          0.29122810       0.60273850       0.49918870
    44  C          0.70877190       0.10273850       0.00081130
    45  H          0.67121800       0.30265200       0.50245400
    46  H          0.32878200       0.80265200      -0.00245400
    47  H          0.32878200       0.69734800       0.49754600
    48  H          0.67121800       0.19734800       0.00245400
    49  C          0.71607190       0.48268150       0.60125130
    50  C          0.28392810       0.98268150       0.89874870
    51  C          0.28392810       0.51731850       0.39874870
    52  C          0.71607190       0.01731850       0.10125130
    53  H          0.68324000       0.44626700       0.67112100
    54  H          0.31676000       0.94626700       0.82887900
    55  H          0.31676000       0.55373300       0.32887900
    56  H          0.68324000       0.05373300       0.17112100
    57  C          0.77106190       0.62109150       0.60026120
    58  C          0.22893810       0.12109150       0.89973880
    59  C          0.22893810       0.37890850       0.39973880
    60  C          0.77106190       0.87890850       0.10026120
    61  H          0.77507700       0.67952800       0.66894500
    62  H          0.22492300       0.17952800       0.83105500
    63  H          0.22492300       0.32047200       0.33105500
    64  H          0.77507700       0.82047200       0.16894500
    65  C          0.89182190       0.81756150       0.49687120
    66  C          0.10817810       0.31756150       0.00312880
    67  C          0.10817810       0.18243850       0.50312880
    68  C          0.89182190       0.68243850      -0.00312880
    69  C          0.74914190       0.35650150       0.28813120
    70  C          0.25085810       0.85650150       0.21186880
    71  C          0.25085810       0.64349850       0.71186880
    72  C          0.74914190       0.14349850       0.78813120
    73  H          0.83639300       0.39152700       0.24302200
    74  H          0.16360700       0.89152700       0.25697800
    75  H          0.16360700       0.60847300       0.75697800
    76  H          0.83639300       0.10847300       0.74302200
    77  H          0.78682000       0.26083300       0.31716500
    78  H          0.21318000       0.76083300       0.18283500
    79  H          0.21318000       0.73916700       0.68283500
    80  H          0.78682000       0.23916700       0.81716500
