data_VITDEL02
_symmetry_space_group_name_H-M    'P1'
_symmetry_Int_Tables_number       1
loop_
_symmetry_equiv_pos_site_id
_symmetry_equiv_pos_as_xyz
1 x,y,z
_cell_length_a                   3.80292
_cell_length_b                   9.91995
_cell_length_c                   11.57096
_cell_angle_alpha                66.8282
_cell_angle_beta                 82.1683
_cell_angle_gamma                82.2452
loop_
_atom_site_label
_atom_site_type_symbol
_atom_site_fract_x
_atom_site_fract_y
_atom_site_fract_z
     1  O          0.03263000       0.83827120       0.49082100
     2  O          0.96737000       0.16172880       0.50917900
     3  O          0.29043000       0.03789120       0.35458110
     4  O          0.70957000       0.96210880       0.64541890
     5  H          0.18660000       0.07830000       0.41020000
     6  H          0.81340000       0.92170000       0.58980000
     7  N          0.33594000       0.40072150       0.21257140
     8  N          0.66406000       0.59927850       0.78742860
     9  N          0.56254000       0.33494150       0.16159130
    10  N          0.43746000       0.66505850       0.83840870
    11  N          0.74434000       0.27491180       0.10769150
    12  N          0.25566000       0.72508820       0.89230850
    13  C          0.38884000       0.82269170       0.30991140
    14  C          0.61116000       0.17730830       0.69008860
    15  C          0.35114000       0.67337170       0.34707140
    16  C          0.64886000       0.32662830       0.65292860
    17  H          0.22383100       0.62246200       0.42578400
    18  H          0.77616900       0.37753800       0.57421600
    19  C          0.49704000       0.59800170       0.27054140
    20  C          0.50296000       0.40199830       0.72945860
    21  C          0.68114000       0.67547180       0.15490150
    22  C          0.31886000       0.32452820       0.84509850
    23  H          0.78304900       0.62531300       0.10159000
    24  H          0.21695100       0.37468700       0.89841000
    25  C          0.71724000       0.82338180       0.11701150
    26  C          0.28276000       0.17661820       0.88298850
    27  H          0.84150600       0.87434600       0.03770000
    28  H          0.15849400       0.12565400       0.96230000
    29  C          0.57304000       0.89857180       0.19389150
    30  C          0.42696000       0.10142820       0.80610850
    31  H          0.59937600       0.00049400       0.16787400
    32  H          0.40062400      -0.00049400       0.83212600
    33  C          0.22204000       0.89969170       0.39315140
    34  C          0.77796000       0.10030830       0.60684860
    35  C          0.46064000       0.43609170       0.31271150
    36  C          0.53936000       0.56390830       0.68728850
    37  H          0.69401600       0.38044500       0.33573900
    38  H          0.30598400       0.61955500       0.66426100
    39  H          0.28920100       0.40468300       0.38883400
    40  H          0.71079900       0.59531700       0.61116600
