data_VITDEL01
_symmetry_space_group_name_H-M    'P1'
_symmetry_Int_Tables_number       1
loop_
_symmetry_equiv_pos_site_id
_symmetry_equiv_pos_as_xyz
1 x,y,z
_cell_length_a                   3.77123
_cell_length_b                   6.12295
_cell_length_c                   34.8683
_cell_angle_alpha                90.0
_cell_angle_beta                 93.0993
_cell_angle_gamma                90.0
loop_
_atom_site_label
_atom_site_type_symbol
_atom_site_fract_x
_atom_site_fract_y
_atom_site_fract_z
     1  O          0.06234000       0.49612000       0.04746400
     2  O          0.43766000      -0.00388000       0.45253600
     3  O          0.93766000       0.50388000       0.95253600
     4  O          0.56234000       0.00388000       0.54746400
     5  O          0.77254000       0.25183000       0.00956400
     6  O          0.72746000       0.75183000       0.49043600
     7  O          0.22746000       0.74817000       0.99043600
     8  O          0.27254000       0.24817000       0.50956400
     9  H          0.83290000       0.34750000       0.99181000
    10  H          0.66710000       0.84750000       0.50819000
    11  H          0.16710000       0.65250000       0.00819000
    12  H          0.33290000       0.15250000       0.49181000
    13  N          0.78545000       0.43403000       0.19050500
    14  N          0.71455000       0.93403000       0.30949500
    15  N          0.21455000       0.56597000       0.80949500
    16  N          0.28545000       0.06597000       0.69050500
    17  N         -0.03074000       0.55523000       0.21177500
    18  N          0.53074000       0.05523000       0.28822500
    19  N          0.03074000       0.44477000       0.78822500
    20  N          0.46926000       0.94477000       0.71177500
    21  N          0.10817000       0.68573000       0.22997600
    22  N          0.39183000       0.18573000       0.27002400
    23  N          0.89183000       0.31427000       0.77002400
    24  N          0.60817000       0.81427000       0.72997600
    25  C          0.80656000       0.18533000       0.07635600
    26  C          0.69344000       0.68533000       0.42364400
    27  C          0.19344000       0.81467000       0.92364400
    28  C          0.30656000       0.31467000       0.57635600
    29  C          0.89305000       0.26003000       0.11338500
    30  C          0.60695000       0.76003000       0.38661500
    31  C          0.10695000       0.73997000       0.88661500
    32  C          0.39305000       0.23997000       0.61338500
    33  H          0.00249400       0.39863900       0.11712300
    34  H          0.49750600       0.89863900       0.38287700
    35  H         -0.00249400       0.60136100       0.88287700
    36  H          0.50249400       0.10136100       0.61712300
    37  C          0.81946000       0.13193000       0.14487600
    38  C          0.68054000       0.63193000       0.35512400
    39  C          0.18054000       0.86807000       0.85512400
    40  C          0.31946000       0.36807000       0.64487600
    41  C          0.65846000       0.92967000       0.13902600
    42  C          0.84154000       0.42967000       0.36097400
    43  C          0.34154000       0.07033000       0.86097400
    44  C          0.15846000       0.57033000       0.63902600
    45  H          0.60433900       0.84258400       0.16048200
    46  H          0.89566100       0.34258400       0.33951800
    47  H          0.39566100       0.15741600       0.83951800
    48  H          0.10433900       0.65741600       0.66048200
    49  C          0.57586000       0.85337000       0.10202600
    50  C          0.92414000       0.35337000       0.39797400
    51  C          0.42414000       0.14663000       0.89797400
    52  C          0.07586000       0.64663000       0.60202600
    53  H          0.46903400       0.71395200       0.09826900
    54  H          0.03096600       0.21395200       0.40173100
    55  H          0.53096600       0.28604800       0.90173100
    56  H         -0.03096600       0.78604800       0.59826900
    57  C          0.64956000      -0.01883000       0.07071600
    58  C          0.85044000       0.48117000       0.42928400
    59  C          0.35044000       0.01883000       0.92928400
    60  C          0.14956000       0.51883000       0.57071600
    61  H          0.59307700       0.92984500       0.04540700
    62  H          0.90692300       0.42984500       0.45459300
    63  H          0.40692300       0.07015500       0.95459300
    64  H          0.09307700       0.57015500       0.54540700
    65  C          0.89196000       0.32493000       0.04313600
    66  C          0.60804000       0.82493000       0.45686400
    67  C          0.10804000       0.67507000       0.95686400
    68  C          0.39196000       0.17507000       0.54313600
    69  C          0.92426000       0.20943000       0.18508600
    70  C          0.57574000       0.70943000       0.31491400
    71  C          0.07574000       0.79057000       0.81491400
    72  C          0.42426000       0.29057000       0.68508600
    73  H          0.82557300       0.10944700       0.20411400
    74  H          0.67442700       0.60944700       0.29588600
    75  H          0.17442700       0.89055300       0.79588600
    76  H          0.32557300       0.39055300       0.70411400
    77  H          0.18611500       0.20918800       0.18906800
    78  H          0.31388500       0.70918800       0.31093200
    79  H          0.81388500       0.79081200       0.81093200
    80  H          0.68611500       0.29081200       0.68906800
