data_VOCNOU
_symmetry_space_group_name_H-M    'P1'
_symmetry_Int_Tables_number       1
loop_
_symmetry_equiv_pos_site_id
_symmetry_equiv_pos_as_xyz
1 x,y,z
_cell_length_a                   12.75894
_cell_length_b                   14.85094
_cell_length_c                   8.06662
_cell_angle_alpha                90.0
_cell_angle_beta                 98.49801
_cell_angle_gamma                90.0
loop_
_atom_site_label
_atom_site_type_symbol
_atom_site_fract_x
_atom_site_fract_y
_atom_site_fract_z
     1  O          0.14852700       0.64635600       0.21648120
     2  O          0.85147300       0.14635600       0.28351880
     3  O          0.85147300       0.35364400       0.78351880
     4  O          0.14852700       0.85364400       0.71648120
     5  O          0.34047700       0.49750600       0.65345120
     6  O          0.65952300      -0.00249400       0.84654880
     7  O          0.65952300       0.50249400       0.34654880
     8  O          0.34047700       0.00249400       0.15345120
     9  N          0.24399800       0.57325700       0.43719130
    10  N          0.75600200       0.07325700       0.06280870
    11  N          0.75600200       0.42674300       0.56280870
    12  N          0.24399800       0.92674300       0.93719130
    13  N          0.55841800       0.83821700       0.43302140
    14  N          0.44158200       0.33821700       0.06697860
    15  N          0.44158200       0.16178300       0.56697860
    16  N          0.55841800       0.66178300       0.93302140
    17  N          0.66333900       0.81805800       0.47170170
    18  N          0.33666100       0.31805800       0.02829830
    19  N          0.33666100       0.18194200       0.52829830
    20  N          0.66333900       0.68194200       0.97170170
    21  N          0.64157100       0.96106900       0.37868180
    22  N          0.35842900       0.46106900       0.12131820
    23  N          0.35842900       0.03893100       0.62131820
    24  N          0.64157100       0.53893100       0.87868180
    25  C          0.01262100       0.36518800       0.39386160
    26  C          0.98737900       0.86518800       0.10613840
    27  C          0.98737900       0.63481200       0.60613840
    28  C          0.01262100       0.13481200       0.89386160
    29  C          0.09074900       0.43431800       0.40682150
    30  C          0.90925100       0.93431800       0.09317850
    31  C          0.90925100       0.56568200       0.59317850
    32  C          0.09074900       0.06568200       0.90682150
    33  C          0.07448900       0.51051800       0.30083150
    34  C          0.92551100       0.01051800       0.19916850
    35  C          0.92551100       0.48948200       0.69916850
    36  C          0.07448900       0.98948200       0.80083150
    37  C          0.47925900       0.77133800       0.44340150
    38  C          0.52074100       0.27133800       0.05659850
    39  C          0.52074100       0.22866200       0.55659850
    40  C          0.47925900       0.72866200       0.94340150
    41  C          0.15606900       0.58212800       0.31125150
    42  C          0.84393100       0.08212800       0.18874850
    43  C          0.84393100       0.41787200       0.68874850
    44  C          0.15606900       0.91787200       0.81125150
    45  C          0.92069900       0.37478900       0.27362160
    46  C          0.07930100       0.87478900       0.22637840
    47  C          0.07930100       0.62521100       0.72637840
    48  C          0.92069900       0.12521100       0.77362160
    49  H          0.86857900       0.32862900       0.26191160
    50  H          0.13142100       0.82862900       0.23808840
    51  H          0.13142100       0.67137100       0.73808840
    52  H          0.86857900       0.17137100       0.76191160
    53  C          0.30347100       0.73004800       0.48332160
    54  C          0.69652900       0.23004800       0.01667840
    55  C          0.69652900       0.26995200       0.51667840
    56  C          0.30347100       0.76995200      -0.01667840
    57  H          0.23567100       0.74559800       0.50991160
    58  H          0.76432900       0.24559800      -0.00991160
    59  H          0.76432900       0.25440200       0.49008840
    60  H          0.23567100       0.75440200       0.00991160
    61  C          0.32567900       0.64161800       0.44560150
    62  C          0.67432100       0.14161800       0.05439850
    63  C          0.67432100       0.35838200       0.55439850
    64  C          0.32567900       0.85838200       0.94560150
    65  C          0.18289900       0.42651800       0.52687150
    66  C          0.81710100       0.92651800       0.97312850
    67  C          0.81710100       0.57348200       0.47312850
    68  C          0.18289900       0.07348200       0.02687150
    69  C          0.03017100       0.28992800       0.50250170
    70  C          0.96982900       0.78992800      -0.00250170
    71  C          0.96982900       0.71007200       0.49749830
    72  C          0.03017100       0.21007200       0.00250170
    73  H          0.97893900       0.24311800       0.49531170
    74  H          0.02106100       0.74311800       0.00468830
    75  H          0.02106100       0.75688200       0.50468830
    76  H          0.97893900       0.25688200      -0.00468830
    77  C          0.50302100       0.68230900       0.41187170
    78  C          0.49697900       0.18230900       0.08812830
    79  C          0.49697900       0.31769100       0.58812830
    80  C          0.50302100       0.81769100       0.91187170
    81  H          0.57180100       0.66623900       0.39028170
    82  H          0.42819900       0.16623900       0.10971830
    83  H          0.42819900       0.33376100       0.60971830
    84  H          0.57180100       0.83376100       0.89028170
    85  C          0.98286900       0.51840800       0.18807160
    86  C          0.01713100       0.01840800       0.31192840
    87  C          0.01713100       0.48159200       0.81192840
    88  C          0.98286900       0.98159200       0.68807160
    89  H          0.97150900       0.57047800       0.11937160
    90  H          0.02849100       0.07047800       0.38062840
    91  H          0.02849100       0.42952200       0.88062840
    92  H          0.97150900       0.92952200       0.61937160
    93  C          0.42541100       0.61723800       0.41224160
    94  C          0.57458900       0.11723800       0.08775840
    95  C          0.57458900       0.38276200       0.58775840
    96  C          0.42541100       0.88276200       0.91224160
    97  H          0.44037100       0.55615800       0.38975160
    98  H          0.55962900       0.05615800       0.11024840
    99  H          0.55962900       0.44384200       0.61024840
   100  H          0.44037100       0.94384200       0.88975160
   101  C          0.38088100       0.79590800       0.48204160
   102  C          0.61911900       0.29590800       0.01795840
   103  C          0.61911900       0.20409200       0.51795840
   104  C          0.38088100       0.70409200       0.98204160
   105  H          0.36655100       0.85676800       0.50725160
   106  H          0.63344900       0.35676800      -0.00725160
   107  H          0.63344900       0.14323200       0.49274840
   108  H          0.36655100       0.64323200       0.00725160
   109  C          0.26247900       0.49947800       0.54718150
   110  C          0.73752100      -0.00052200       0.95281850
   111  C          0.73752100       0.50052200       0.45281850
   112  C          0.26247900       0.00052200       0.04718150
   113  C          0.19725100       0.35238900       0.63019170
   114  C          0.80274900       0.85238900       0.86980830
   115  C          0.80274900       0.64761100       0.36980830
   116  C          0.19725100       0.14761100       0.13019170
   117  H          0.25950100       0.34736900       0.71033170
   118  H          0.74049900       0.84736900       0.78966830
   119  H          0.74049900       0.65263100       0.28966830
   120  H          0.25950100       0.15263100       0.21033170
   121  C          0.90572900       0.44973900       0.17374160
   122  C          0.09427100       0.94973900       0.32625840
   123  C          0.09427100       0.55026100       0.82625840
   124  C          0.90572900       0.05026100       0.67374160
   125  H          0.84311900       0.45544900       0.09454160
   126  H          0.15688100       0.95544900       0.40545840
   127  H          0.15688100       0.54455100       0.90545840
   128  H          0.84311900       0.04455100       0.59454160
   129  C          0.12010110       0.28397900       0.61759180
   130  C          0.87989890       0.78397900       0.88240820
   131  C          0.87989890       0.71602100       0.38240820
   132  C          0.12010110       0.21602100       0.11759180
   133  H          0.13060110       0.23318900       0.68972180
   134  H          0.86939890       0.73318900       0.81027820
   135  H          0.86939890       0.76681100       0.31027820
   136  H          0.13060110       0.26681100       0.18972180
   137  C          0.70791110       0.89400100       0.43622000
   138  C          0.29208890       0.39400100       0.06378000
   139  C          0.29208890       0.10599900       0.56378000
   140  C          0.70791110       0.60599900       0.93622000
   141  H          0.78270110       0.90112100       0.45042000
   142  H          0.21729890       0.40112100       0.04958000
   143  H          0.21729890       0.09887900       0.54958000
   144  H          0.78270110       0.59887900       0.95042000
   145  C          0.54787110       0.92278100       0.37692000
   146  C          0.45212890       0.42278100       0.12308000
   147  C          0.45212890       0.07721900       0.62308000
   148  C          0.54787110       0.57721900       0.87692000
   149  H          0.48197110       0.95155100       0.34062000
   150  H          0.51802890       0.45155100       0.15938000
   151  H          0.51802890       0.04844900       0.65938000
   152  H          0.48197110       0.54844900       0.84062000
