data_VOCNOU03
_symmetry_space_group_name_H-M    'P1'
_symmetry_Int_Tables_number       1
loop_
_symmetry_equiv_pos_site_id
_symmetry_equiv_pos_as_xyz
1 x,y,z
_cell_length_a                   9.53764
_cell_length_b                   30.28091
_cell_length_c                   5.21722
_cell_angle_alpha                90.0
_cell_angle_beta                 90.0
_cell_angle_gamma                90.0
loop_
_atom_site_label
_atom_site_type_symbol
_atom_site_fract_x
_atom_site_fract_y
_atom_site_fract_z
     1  O          0.52432150       0.44166400       0.22673000
     2  O          0.02432150       0.05833600       0.77327000
     3  O          0.97567850       0.94166400       0.77327000
     4  O          0.47567850       0.55833600       0.22673000
     5  O          0.82649150       0.41576400       0.88283000
     6  O          0.32649150       0.08423600       0.11717000
     7  O          0.67350850       0.91576400       0.11717000
     8  O          0.17350850       0.58423600       0.88283000
     9  N          0.87807170       0.60347400       0.54143000
    10  N          0.37807170       0.89652600       0.45857000
    11  N          0.62192830       0.10347400       0.45857000
    12  N          0.12192830       0.39652600       0.54143000
    13  N          0.66744170       0.42987400       0.56943000
    14  N          0.16744170       0.07012600       0.43057000
    15  N          0.83255830       0.92987400       0.43057000
    16  N          0.33255830       0.57012600       0.56943000
    17  N          0.85749190       0.63188500       0.74073000
    18  N          0.35749190       0.86811500       0.25927000
    19  N          0.64250810       0.13188500       0.25927000
    20  N          0.14250810       0.36811500       0.74073000
    21  N         -0.00308000       0.66297500       0.43953000
    22  N          0.49692000       0.83702500       0.56047000
    23  N          0.50308000       0.16297500       0.56047000
    24  N          0.00308000       0.33702500       0.43953000
    25  C          0.71632000       0.47510500       0.55654000
    26  C          0.21632000       0.02489500       0.44346000
    27  C          0.78368000       0.97510500       0.44346000
    28  C          0.28368000       0.52489500       0.55654000
    29  C          0.51722000       0.29834500       0.62543000
    30  C          0.01722000       0.20165500       0.37457000
    31  C          0.98278000       0.79834500       0.37457000
    32  C          0.48278000       0.70165500       0.62543000
    33  C          0.81955190       0.56008500       0.54353000
    34  C          0.31955190       0.93991500       0.45647000
    35  C          0.68044810       0.06008500       0.45647000
    36  C          0.18044810       0.43991500       0.54353000
    37  C          0.56778190       0.34247500       0.60553000
    38  C          0.06778190       0.15752500       0.39447000
    39  C          0.93221810       0.84247500       0.39447000
    40  C          0.43221810       0.65752500       0.60553000
    41  C          0.85092000       0.53108600       0.34714000
    42  C          0.35092000       0.96891400       0.65286000
    43  C          0.64908000       0.03108600       0.65286000
    44  C          0.14908000       0.46891400       0.34714000
    45  H          0.90662000       0.54017600       0.21074000
    46  H          0.40662000       0.95982400       0.78926000
    47  H          0.59338000       0.04017600       0.78926000
    48  H          0.09338000       0.45982400       0.21074000
    49  C          0.68222000       0.50435600       0.74903000
    50  C          0.18222000      -0.00435600       0.25097000
    51  C          0.81778000       0.00435600       0.25097000
    52  C          0.31778000       0.49564400       0.74903000
    53  H          0.62482000       0.49537600       0.88333000
    54  H          0.12482000       0.00462400       0.11667000
    55  H          0.87518000       0.99537600       0.11667000
    56  H          0.37518000       0.50462400       0.88333000
    57  C          0.56432000       0.41649600       0.39243000
    58  C          0.06432000       0.08350400       0.60757000
    59  C          0.93568000       0.91649600       0.60757000
    60  C          0.43568000       0.58350400       0.39243000
    61  C          0.67560190       0.35679500       0.77163000
    62  C          0.17560190       0.14320500       0.22837000
    63  C          0.82439810       0.85679500       0.22837000
    64  C          0.32439810       0.64320500       0.77163000
    65  C          0.73032000       0.40223500       0.75103000
    66  C          0.23032000       0.09776500       0.24897000
    67  C          0.76968000       0.90223500       0.24897000
    68  C          0.26968000       0.59776500       0.75103000
    69  C          0.79902000       0.48856600       0.35454000
    70  C          0.29902000       0.01143400       0.64546000
    71  C          0.70098000       0.98856600       0.64546000
    72  C          0.20098000       0.51143400       0.35454000
    73  H          0.81992000       0.46894600       0.22284000
    74  H          0.31992000       0.03105400       0.77716000
    75  H          0.68008000       0.96894600       0.77716000
    76  H          0.18008000       0.53105400       0.22284000
    77  C          0.73342000       0.54702500       0.74214000
    78  C          0.23342000       0.95297500       0.25786000
    79  C          0.76658000       0.04702500       0.25786000
    80  C          0.26658000       0.45297500       0.74214000
    81  H          0.70982000       0.56690500       0.87094000
    82  H          0.20982000       0.93309500       0.12906000
    83  H          0.79018000       0.06690500       0.12906000
    84  H          0.29018000       0.43309500       0.87094000
    85  C          0.57602000       0.27035600       0.81204000
    86  C          0.07602000       0.22964400       0.18796000
    87  C          0.92398000       0.77035600       0.18796000
    88  C          0.42398000       0.72964400       0.81204000
    89  H          0.54432000       0.24142600       0.82664000
    90  H          0.04432000       0.25857400       0.17336000
    91  H          0.95568000       0.74142600       0.17336000
    92  H          0.45568000       0.75857400       0.82664000
    93  C          0.73042000       0.32854600       0.95303000
    94  C          0.23042000       0.17145400       0.04697000
    95  C          0.76958000       0.82854600       0.04697000
    96  C          0.26958000       0.67145400       0.95303000
    97  H          0.80102000       0.33820600       0.06253000
    98  H          0.30102000       0.16179400       0.93747000
    99  H          0.69898000       0.83820600       0.93747000
   100  H          0.19898000       0.66179400       0.06253000
   101  C          0.41002000       0.28459600       0.45664000
   102  C          0.91002000       0.21540400       0.54336000
   103  C          0.08998000       0.78459600       0.54336000
   104  C          0.58998000       0.71540400       0.45664000
   105  H          0.37532000       0.25596600       0.46754000
   106  H          0.87532000       0.24403400       0.53246000
   107  H          0.12468000       0.75596600       0.53246000
   108  H          0.62468000       0.74403400       0.46754000
   109  C          0.40782000       0.35605600       0.25834000
   110  C          0.90782000       0.14394400       0.74166000
   111  C          0.09218000       0.85605600       0.74166000
   112  C          0.59218000       0.64394400       0.25834000
   113  H          0.37082000       0.37494600       0.13514000
   114  H          0.87082000       0.12505400       0.86486000
   115  H          0.12918000       0.87494600       0.86486000
   116  H          0.62918000       0.62505400       0.13514000
   117  C          0.67942000       0.28520600       0.97224000
   118  C          0.17942000       0.21479400       0.02776000
   119  C          0.82058000       0.78520600       0.02776000
   120  C          0.32058000       0.71479400       0.97224000
   121  H          0.71642000       0.26631600       0.09544000
   122  H          0.21642000       0.23368400       0.90456000
   123  H          0.78358000       0.76631600       0.90456000
   124  H          0.28358000       0.73368400       0.09544000
   125  C          0.51112000       0.37082500       0.41823000
   126  C          0.01112000       0.12917500       0.58177000
   127  C         -0.01112000       0.87082500       0.58177000
   128  C          0.48888000       0.62917500       0.41823000
   129  C          0.35702000       0.31284600       0.27774000
   130  C          0.85702000       0.18715400       0.72226000
   131  C          0.14298000       0.81284600       0.72226000
   132  C          0.64298000       0.68715400       0.27774000
   133  H          0.28652000       0.30331600       0.16774000
   134  H          0.78652000       0.19668400       0.83226000
   135  H          0.21348000       0.80331600       0.83226000
   136  H          0.71348000       0.69668400       0.16774000
   137  C          0.93052000       0.66631600       0.66764000
   138  C          0.43052000       0.83368400       0.33236000
   139  C          0.56948000       0.16631600       0.33236000
   140  C          0.06948000       0.33368400       0.66764000
   141  H          0.93642000       0.69169600       0.76744000
   142  H          0.43642000       0.80830400       0.23256000
   143  H          0.56358000       0.19169600       0.23256000
   144  H          0.06358000       0.30830400       0.76744000
   145  C          0.96112000       0.62279600       0.36754000
   146  C          0.46112000       0.87720400       0.63246000
   147  C          0.53888000       0.12279600       0.63246000
   148  C          0.03888000       0.37720400       0.36754000
   149  H         -0.01028000       0.60958600       0.21534000
   150  H          0.48972000       0.89041400       0.78466000
   151  H          0.51028000       0.10958600       0.78466000
   152  H          0.01028000       0.39041400       0.21534000
