data_VOCNOU01
_symmetry_space_group_name_H-M    'P1'
_symmetry_Int_Tables_number       1
loop_
_symmetry_equiv_pos_site_id
_symmetry_equiv_pos_as_xyz
1 x,y,z
_cell_length_a                   7.77122
_cell_length_b                   9.49572
_cell_length_c                   11.32013
_cell_angle_alpha                100.37901
_cell_angle_beta                 103.77001
_cell_angle_gamma                106.38301
loop_
_atom_site_label
_atom_site_type_symbol
_atom_site_fract_x
_atom_site_fract_y
_atom_site_fract_z
     1  O          0.71123000       0.86612000       0.44577190
     2  O          0.28877000       0.13388000       0.55422810
     3  O          0.78293000       0.48822000       0.17142000
     4  O          0.21707000       0.51178000       0.82858000
     5  N          0.75273000       0.67922000       0.31002000
     6  N          0.24727000       0.32078000       0.68998000
     7  N          0.73233000       0.02613000       0.95578000
     8  N          0.26767000       0.97387000       0.04422000
     9  N          0.60774000       0.96163000       0.83588000
    10  N          0.39226000       0.03837000       0.16412000
    11  C          0.75314000       0.50613000       0.48883000
    12  C          0.24686000       0.49387000       0.51117000
    13  C          0.70944000       0.70523000       0.63243000
    14  C          0.29056000       0.29477000       0.36757000
    15  H          0.69090000       0.80050000       0.65050000
    16  H          0.30910000       0.19950000       0.34950000
    17  C          0.74104000       0.93743000       0.04483000
    18  C          0.25896000       0.06257000       0.95517000
    19  C          0.60484000       0.71363000       0.10623000
    20  C          0.39516000       0.28637000       0.89377000
    21  H          0.50820000       0.61840000       0.08910000
    22  H          0.49180000       0.38160000       0.91090000
    23  C          0.59944000       0.79923000       0.01873000
    24  C          0.40056000       0.20077000       0.98127000
    25  H          0.49920000       0.76300000       0.94170000
    26  H          0.50080000       0.23700000       0.05830000
    27  C          0.75054000       0.76713000       0.21823000
    28  C          0.24946000       0.23287000       0.78177000
    29  C          0.89044000      -0.00927000       0.15663000
    30  C          0.10956000       0.00927000       0.84337000
    31  H         -0.01170000       0.08490000       0.17310000
    32  H          0.01170000       0.91510000       0.82690000
    33  N          0.76584000       0.20853000       0.85977000
    34  N          0.23416000       0.79147000       0.14023000
    35  C          0.78544000       0.30383000       0.34103000
    36  C          0.21456000       0.69617000       0.65897000
    37  H          0.79440000       0.26320000       0.26050000
    38  H          0.20560000       0.73680000       0.73950000
    39  C          0.77014000       0.44603000       0.37033000
    40  C          0.22986000       0.55397000       0.62967000
    41  C          0.76994000       0.53423000       0.27513000
    42  C          0.23006000       0.46577000       0.72487000
    43  C          0.73044000       0.65003000       0.51783000
    44  C          0.26956000       0.34997000       0.48217000
    45  C          0.89464000       0.90493000       0.24363000
    46  C          0.10536000       0.09507000       0.75637000
    47  H         -0.00450000       0.94010000       0.32020000
    48  H          0.00450000       0.05990000       0.67980000
    49  C          0.74034000       0.48273000       0.69843000
    50  C          0.25966000       0.51727000       0.30157000
    51  H          0.74670000       0.42820000       0.76090000
    52  H          0.25330000       0.57180000       0.23910000
    53  C          0.72964000       0.74143000       0.42543000
    54  C          0.27036000       0.25857000       0.57457000
    55  C          0.77614000       0.27603000       0.54753000
    56  C          0.22386000       0.72397000       0.45247000
    57  H          0.78120000       0.21820000       0.60770000
    58  H          0.21880000       0.78180000       0.39230000
    59  C          0.75664000       0.42083000       0.58023000
    60  C          0.24336000       0.57917000       0.41977000
    61  C          0.71534000       0.62153000       0.72363000
    62  C          0.28466000       0.37847000       0.27637000
    63  H          0.70180000       0.66130000       0.80280000
    64  H          0.29820000       0.33870000       0.19720000
    65  C          0.78784000       0.21813000       0.43163000
    66  C          0.21216000       0.78187000       0.56837000
    67  H          0.79760000       0.11970000       0.41130000
    68  H          0.20240000       0.88030000       0.58870000
    69  C          0.82285000       0.17374000       0.96777000
    70  C          0.17715000       0.82626000       0.03223000
    71  H          0.91400000       0.24300000       0.04260000
    72  H          0.08600000       0.75700000       0.95740000
    73  C          0.63485000       0.07624000       0.78407000
    74  C          0.36515000       0.92376000       0.21593000
    75  H          0.56710000       0.06660000       0.69960000
    76  H          0.43290000       0.93340000       0.30040000
