data_VOCNOU02
_symmetry_space_group_name_H-M    'P1'
_symmetry_Int_Tables_number       1
loop_
_symmetry_equiv_pos_site_id
_symmetry_equiv_pos_as_xyz
1 x,y,z
_cell_length_a                   5.46522
_cell_length_b                   15.98718
_cell_length_c                   18.18549
_cell_angle_alpha                90.0
_cell_angle_beta                 90.0
_cell_angle_gamma                90.0
loop_
_atom_site_label
_atom_site_type_symbol
_atom_site_fract_x
_atom_site_fract_y
_atom_site_fract_z
     1  O          0.92668000       0.60496200       0.27926300
     2  O          0.42668000       0.89503800       0.72073700
     3  O          0.07332000       0.10496200       0.22073700
     4  O          0.57332000       0.39503800       0.77926300
     5  O          0.31497000       0.54753100       0.44042200
     6  O          0.81497000       0.95246900       0.55957800
     7  O          0.68503000       0.04753100       0.05957800
     8  O          0.18503000       0.45246900       0.94042200
     9  N          0.48897000       0.92044100       0.40727100
    10  N         -0.01103000       0.57955900       0.59272900
    11  N          0.51103000       0.42044100       0.09272900
    12  N          0.01103000       0.07955900       0.90727100
    13  N          0.63857000       0.57590100       0.36584100
    14  N          0.13857000       0.92409900       0.63415900
    15  N          0.36143000       0.07590100       0.13415900
    16  N          0.86143000       0.42409900       0.86584100
    17  N          0.55897000       0.05541100       0.40935900
    18  N          0.05897000       0.44458900       0.59064100
    19  N          0.44103000       0.55541100       0.09064100
    20  N          0.94103000       0.94458900       0.90935900
    21  N          0.26237000       0.95649890       0.40593880
    22  N          0.76237000       0.54350110       0.59406120
    23  N          0.73763000       0.45649890       0.09406120
    24  N          0.23763000       0.04350110       0.90593880
    25  C          0.72607000       0.79432880       0.43063900
    26  C          0.22607000       0.70567120       0.56936100
    27  C          0.27393000       0.29432880       0.06936100
    28  C          0.77393000       0.20567120       0.93063900
    29  H          0.83877000       0.82582880       0.45918900
    30  H          0.33877000       0.67417120       0.54081100
    31  H          0.16123000       0.32582880       0.04081100
    32  H          0.66123000       0.17417120       0.95918900
    33  C          0.52177000       0.83217890       0.40021900
    34  C          0.02177000       0.66782110       0.59978100
    35  C          0.47823000       0.33217890       0.09978100
    36  C         -0.02177000       0.16782110       0.90021900
    37  C          0.35347000       0.78677880       0.35922890
    38  C          0.85347000       0.71322120       0.64077110
    39  C          0.64653000       0.28677880       0.14077110
    40  C          0.14653000       0.21322120       0.85922890
    41  H          0.21277000       0.81349880       0.33955890
    42  H          0.71277000       0.68650120       0.66044110
    43  H          0.78723000       0.31349880       0.16044110
    44  H          0.28723000       0.18650120       0.83955890
    45  C          0.76307000       0.70938890       0.41859900
    46  C          0.26307000       0.79061110       0.58140100
    47  C          0.23693000       0.20938890       0.08140100
    48  C          0.73693000       0.29061110       0.91859900
    49  H          0.90197000       0.68216890       0.43892900
    50  H          0.40197000       0.81783110       0.56107100
    51  H          0.09803000       0.18216890       0.06107100
    52  H          0.59803000       0.31783110       0.93892900
    53  C          0.59637000       0.66459890       0.37679900
    54  C          0.09637000       0.83540110       0.62320100
    55  C          0.40363000       0.16459890       0.12320100
    56  C          0.90363000       0.33540110       0.87679900
    57  C          0.66016000       0.98020890       0.40902890
    58  C          0.16016000       0.51979110       0.59097110
    59  C          0.33984000       0.48020890       0.09097110
    60  C          0.83984000       0.01979110       0.90902890
    61  H          0.83136000       0.97003890       0.40990890
    62  H          0.33136000       0.52996110       0.59009110
    63  H          0.16864000       0.47003890       0.09009110
    64  H          0.66864000       0.02996110       0.90990890
    65  C          0.80046000       0.31733880       0.34918890
    66  C          0.30046000       0.18266120       0.65081110
    67  C          0.19954000       0.81733880       0.15081110
    68  C          0.69954000       0.68266120       0.84918890
    69  C          0.39217000       0.70275890       0.34727890
    70  C          0.89217000       0.79724110       0.65272110
    71  C          0.60783000       0.20275890       0.15272110
    72  C          0.10783000       0.29724110       0.84727890
    73  H          0.27897000       0.67124890       0.31889890
    74  H          0.77897000       0.82875110       0.68110110
    75  H          0.72103000       0.17124890       0.18110110
    76  H          0.22103000       0.32875110       0.81889890
    77  C          0.74197000       0.40420890       0.35388900
    78  C          0.24197000       0.09579110       0.64611100
    79  C          0.25803000       0.90420890       0.14611100
    80  C          0.75803000       0.59579110       0.85388900
    81  C          0.82267000       0.55203880       0.31653900
    82  C          0.32267000       0.94796120       0.68346100
    83  C          0.17733000       0.05203880       0.18346100
    84  C          0.67733000       0.44796120       0.81653900
    85  C          0.88237000       0.46231880       0.31313900
    86  C          0.38237000       0.03768120       0.68686100
    87  C          0.11763000       0.96231880       0.18686100
    88  C          0.61763000       0.53768120       0.81313900
    89  C          0.65516000       0.26026880       0.38928890
    90  C          0.15516000       0.23973120       0.61071110
    91  C          0.34484000       0.76026880       0.11071110
    92  C          0.84484000       0.73973120       0.88928890
    93  H          0.68876000       0.20208880       0.38598890
    94  H          0.18876000       0.29791120       0.61401110
    95  H          0.31124000       0.70208880       0.11401110
    96  H          0.81124000       0.79791120       0.88598890
    97  C          0.13514000       0.35027860       0.26714890
    98  C          0.63514000       0.14972140       0.73285110
    99  C          0.86486000       0.85027860       0.23285110
   100  C          0.36486000       0.64972140       0.76714890
   101  H          0.27034000       0.33251860       0.23825890
   102  H          0.77034000       0.16748140       0.76174110
   103  H          0.72966000       0.83251860       0.26174110
   104  H          0.22966000       0.66748140       0.73825890
   105  C         -0.00024000       0.29253870       0.30489890
   106  C          0.49976000       0.20746130       0.69510110
   107  C          0.00024000       0.79253870       0.19510110
   108  C          0.50024000       0.70746130       0.80489890
   109  H          0.04044000       0.23491870       0.30124890
   110  H          0.54044000       0.26508130       0.69875110
   111  H          0.95956000       0.73491870       0.19875110
   112  H          0.45956000       0.76508130       0.80124890
   113  C          0.54566000       0.43059890       0.39871900
   114  C          0.04566000       0.06940110       0.60128100
   115  C          0.45434000       0.93059890       0.10128100
   116  C          0.95434000       0.56940110       0.89871900
   117  C          0.07564000       0.43557870       0.27080890
   118  C          0.57564000       0.06442130       0.72919110
   119  C          0.92436000       0.93557870       0.22919110
   120  C          0.42436000       0.56442130       0.77080890
   121  H          0.16954000       0.47509870       0.24385890
   122  H          0.66954000       0.02490130       0.75614110
   123  H          0.83046000       0.97509870       0.25614110
   124  H          0.33046000       0.52490130       0.74385890
   125  C          0.48606000       0.52047890       0.40446890
   126  C         -0.01394000       0.97952110       0.59553110
   127  C          0.51394000       0.02047890       0.09553110
   128  C          0.01394000       0.47952110       0.90446890
   129  C          0.41066000       0.37312880       0.43794890
   130  C          0.91066000       0.12687120       0.56205110
   131  C          0.58934000       0.87312880       0.06205110
   132  C          0.08934000       0.62687120       0.93794890
   133  H          0.27986000       0.39128880       0.46843890
   134  H          0.77986000       0.10871120       0.53156110
   135  H          0.72014000       0.89128880       0.03156110
   136  H          0.22014000       0.60871120       0.96843890
   137  C          0.46716000       0.28731870       0.43274880
   138  C          0.96716000       0.21268130       0.56725120
   139  C          0.53284000       0.78731870       0.06725120
   140  C          0.03284000       0.71268130       0.93274880
   141  H          0.37346000       0.24781870       0.45976880
   142  H          0.87346000       0.25218130       0.54023120
   143  H          0.62654000       0.74781870       0.04023120
   144  H          0.12654000       0.75218130       0.95976880
   145  C          0.31746000       0.03660130       0.40725850
   146  C          0.81746000       0.46339870       0.59274150
   147  C          0.68254000       0.53660130       0.09274150
   148  C          0.18254000       0.96339870       0.90725850
   149  H          0.19496000       0.07877130       0.40676850
   150  H          0.69496000       0.42122870       0.59323150
   151  H          0.80504000       0.57877130       0.09323150
   152  H          0.30504000       0.92122870       0.90676850
