data_VOCWAO06
_symmetry_space_group_name_H-M    'P1'
_symmetry_Int_Tables_number       1
loop_
_symmetry_equiv_pos_site_id
_symmetry_equiv_pos_as_xyz
1 x,y,z
_cell_length_a                   9.8093
_cell_length_b                   8.4413
_cell_length_c                   13.5674
_cell_angle_alpha                86.123
_cell_angle_beta                 82.272
_cell_angle_gamma                91.812
loop_
_atom_site_label
_atom_site_type_symbol
_atom_site_fract_x
_atom_site_fract_y
_atom_site_fract_z
     1  O          0.12529000       0.57620000       0.65771500
     2  O          0.87471000       0.42380000       0.34228500
     3  C          0.09041100       0.39030000       0.53520000
     4  C          0.90958900       0.60970000       0.46480000
     5  H          0.14856500       0.31706700       0.55969200
     6  H          0.85143500       0.68293300       0.44030800
     7  C          0.06821100       0.53630000       0.57720000
     8  C          0.93178900       0.46370000       0.42280000
     9  C          0.07018000       0.96468300       0.29981100
    10  C          0.92982000       0.03531700       0.70018900
    11  C          0.14478000       0.83518300       0.32641000
    12  C          0.85522000       0.16481700       0.67359000
    13  H          0.18349900       0.83219900       0.38541100
    14  H          0.81650100       0.16780100       0.61458900
    15  C          0.16158000       0.70998400       0.26501100
    16  C          0.83842000       0.29001600       0.73498900
    17  H          0.21138500       0.62325100       0.28285100
    18  H          0.78861500       0.37674900       0.71714900
    19  N          0.10358000       0.71438400       0.17691000
    20  N          0.89642000       0.28561600       0.82309000
    21  C          0.02898000       0.84398300       0.15021000
    22  C          0.97102000       0.15601700       0.84979000
    23  H         -0.00983600       0.84692000       0.09119600
    24  H          0.00983600       0.15308000       0.90880400
    25  C          0.01227000       0.96918400       0.21161000
    26  C         -0.01227000       0.03081600       0.78839000
    27  H          0.96227600       0.05587000       0.19375500
    28  H          0.03772400       0.94413000       0.80624500
    29  C          0.05601000       0.09830000       0.36120000
    30  C          0.94399000       0.90170000       0.63880000
    31  C          0.20281500       0.46140000       0.70520000
    32  C          0.79718500       0.53860000       0.29480000
    33  H          0.29692300       0.46775500       0.67217100
    34  H          0.70307700       0.53224500       0.32782900
    35  H          0.16447300       0.35602800       0.69876500
    36  H          0.83552700       0.64397200       0.30123500
    37  C          0.04221000       0.21530000       0.40420000
    38  C          0.95779000       0.78470000       0.59580000
    39  C          0.02091100       0.36030000       0.45420000
    40  C          0.97908900       0.63970000       0.54580000
    41  C          0.24871600       0.69940000       0.93430000
    42  C          0.75128400       0.30060000       0.06570000
    43  H          0.26007300       0.81375200       0.93425000
    44  H          0.73992700       0.18624800       0.06575000
    45  H          0.16470200       0.66703000       0.97772600
    46  H          0.83529800       0.33297000       0.02227400
    47  C          0.36391700       0.62850000       0.97730000
    48  C          0.63608300       0.37150000       0.02270000
    49  H          0.33082600       0.53589800       0.01948200
    50  H          0.66917400       0.46410200       0.98051800
    51  H          0.40510300       0.70401100       0.01446800
    52  H          0.59489700       0.29598900       0.98553200
    53  H          0.43136700       0.59778500       0.92393700
    54  H          0.56863300       0.40221500       0.07606300
    55  C          0.22820000       0.66250000       0.83030000
    56  C          0.77180000       0.33750000       0.16970000
    57  H          0.15009000       0.71788400       0.81042200
    58  H          0.84991000       0.28211600       0.18957800
    59  H          0.30910500       0.69767500       0.78381100
    60  H          0.69089500       0.30232500       0.21618900
    61  C          0.20320000       0.48850000       0.82530000
    62  C          0.79680000       0.51150000       0.17470000
    63  H          0.11547200       0.45229000       0.86319200
    64  H          0.88452800       0.54771000       0.13680800
    65  H          0.27559600       0.42874200       0.85092900
    66  H          0.72440400       0.57125800       0.14907100
    67  C          0.29171200       0.98340000       0.63330000
    68  C          0.70828800       0.01660000       0.36670000
    69  H          0.23514700       0.92432300       0.68855800
    70  H          0.76485300       0.07567700       0.31144200
    71  H          0.23451700       0.06238400       0.60614500
    72  H          0.76548300       0.93761600       0.39385500
    73  O          0.43888000       0.78320000       0.57861400
    74  O          0.56112000       0.21680000       0.42138600
    75  C          0.37721000       0.37530000       0.34620000
    76  C          0.62279000       0.62470000       0.65380000
    77  C          0.40471200       0.06940000       0.67420000
    78  C          0.59528800       0.93060000       0.32580000
    79  H          0.43020700       0.16628700       0.63229700
    80  H          0.56979300       0.83371300       0.36770300
    81  H          0.48448200       0.00362300       0.66968000
    82  H          0.51551800      -0.00362300       0.33032000
    83  C          0.46511000       0.64630000       0.53720000
    84  C          0.53489000       0.35370000       0.46280000
    85  C          0.43751000       0.44430000       0.42420000
    86  C          0.56249000       0.55570000       0.57580000
    87  C          0.36761100       0.11230000       0.78320000
    88  C          0.63238900       0.88770000       0.21680000
    89  H          0.28105300       0.16514400       0.78970000
    90  H          0.71894700       0.83485600       0.21030000
    91  H          0.35428900       0.01424600       0.82636700
    92  H          0.64571100      -0.01424600       0.17363300
    93  C          0.35238000       0.14641700       0.14191100
    94  C          0.64762000       0.85358300       0.85808900
    95  H          0.42396000       0.10160400       0.17101800
    96  H          0.57604000       0.89839600       0.82898200
    97  C          0.28888000       0.27771900       0.18091100
    98  C          0.71112000       0.72228100       0.81908900
    99  C          0.18178000       0.34461800       0.13741200
   100  C          0.81822000       0.65538200       0.86258800
   101  H          0.13917700       0.43250500       0.16350900
   102  H          0.86082300       0.56749500       0.83649100
   103  C          0.13818000       0.28031700       0.05471100
   104  C          0.86182000       0.71968300       0.94528900
   105  H          0.06639500       0.32507100       0.02557700
   106  H          0.93360500       0.67492900       0.97442300
   107  N          0.20168000       0.14901800       0.01571000
   108  N          0.79832000       0.85098200       0.98429000
   109  C          0.30878000       0.08201700       0.05921100
   110  C          0.69122000       0.91798300       0.94078900
   111  H          0.35117600      -0.00583300       0.03308300
   112  H          0.64882400       0.00583300       0.96691700
   113  C          0.32841100       0.87330000       0.55620000
   114  C          0.67158900       0.12670000       0.44380000
   115  H          0.24959300       0.80291900       0.55176500
   116  H          0.75040700       0.19708100       0.44823500
   117  H          0.35314500       0.93229200       0.49228900
   118  H          0.64685500       0.06770800       0.50771100
   119  C          0.33611000       0.33430000       0.27220000
   120  C          0.66389000       0.66570000       0.72780000
   121  C          0.40271100       0.58830000       0.46020000
   122  C          0.59728900       0.41170000       0.53980000
   123  H          0.33687600       0.64711700       0.43215400
   124  H          0.66312400       0.35288300       0.56784600
   125  C          0.47491300       0.21650000       0.81930000
   126  C          0.52508700       0.78350000       0.18070000
   127  H          0.51441000       0.29019800       0.76478600
   128  H          0.48559000       0.70980200       0.23521400
   129  H          0.54570800       0.15158500       0.84028300
   130  H          0.45429200       0.84841500       0.15971700
   131  H          0.43342000       0.27276400       0.87299600
   132  H          0.56658000       0.72723600       0.12700400
