data_VOCWAO02
_symmetry_space_group_name_H-M    'P1'
_symmetry_Int_Tables_number       1
loop_
_symmetry_equiv_pos_site_id
_symmetry_equiv_pos_as_xyz
1 x,y,z
_cell_length_a                   8.54323
_cell_length_b                   10.99064
_cell_length_c                   15.41646
_cell_angle_alpha                72.13901
_cell_angle_beta                 82.87501
_cell_angle_gamma                76.92901
loop_
_atom_site_label
_atom_site_type_symbol
_atom_site_fract_x
_atom_site_fract_y
_atom_site_fract_z
     1  O          0.40251170       0.49275120       0.67856900
     2  O          0.59748830       0.50724880       0.32143100
     3  C          0.57052000       0.76914190       0.60998130
     4  C          0.42948000       0.23085810       0.39001870
     5  C          0.42762000       0.39898180       0.55269130
     6  C          0.57238000       0.60101820       0.44730870
     7  H          0.37940000       0.33050000       0.58780000
     8  H          0.62060000       0.66950000       0.41220000
     9  C          0.59322000       0.86297170       0.65135120
    10  C          0.40678000       0.13702830       0.34864880
    11  C          0.52322000       0.59355170       0.53814130
    12  C          0.47678000       0.40644830       0.46185870
    13  C          0.54862000       0.68992190       0.57703130
    14  C          0.45138000       0.31007810       0.42296870
    15  N          0.63352000       0.04612000       0.73476160
    16  N          0.36648000       0.95388000       0.26523840
    17  C          0.44932000       0.49130180       0.59138130
    18  C          0.55068000       0.50869820       0.40861870
    19  C          0.64232000       0.97693190       0.60135140
    20  C          0.35768000       0.02306810       0.39864860
    21  H          0.66270000      -0.00510000       0.53850000
    22  H          0.33730000       0.00510000       0.46150000
    23  C          0.33093000       0.38782190       0.73617130
    24  C          0.66907000       0.61217810       0.26382870
    25  H          0.40650000       0.30550000       0.74280000
    26  H          0.59350000       0.69450000       0.25720000
    27  H          0.23590000       0.38370000       0.70950000
    28  H          0.76410000       0.61630000       0.29050000
    29  C          0.56363000       0.84422000       0.74477140
    30  C          0.43637000       0.15578000       0.25522860
    31  H          0.52970000       0.76940000       0.78180000
    32  H          0.47030000       0.23060000       0.21820000
    33  C          0.66093000       0.06352000       0.64559180
    34  C          0.33907000       0.93648000       0.35440820
    35  H          0.69490000       0.13940000       0.61070000
    36  H          0.30510000       0.86060000       0.38930000
    37  C          0.28593000       0.41182000       0.82757130
    38  C          0.71407000       0.58818000       0.17242870
    39  H          0.20810000       0.49310000       0.82020000
    40  H          0.79190000       0.50690000       0.17980000
    41  H          0.38080000       0.42050000       0.85200000
    42  H          0.61920000       0.57950000       0.14800000
    43  C          0.58543000       0.93763000       0.78131160
    44  C          0.41457000       0.06237000       0.21868840
    45  H          0.56450000       0.92320000       0.84390000
    46  H          0.43550000       0.07680000       0.15610000
    47  C          0.21523000       0.30262000       0.89442140
    48  C          0.78477000       0.69738000       0.10557860
    49  H          0.12020000       0.29480000       0.86960000
    50  H          0.87980000       0.70520000       0.13040000
    51  H          0.29280000       0.22150000       0.90050000
    52  H          0.70720000       0.77850000       0.09950000
    53  C          0.16984000       0.32063000       0.98686170
    54  C          0.83016000       0.67937000       0.01313830
    55  H          0.09350000       0.40240000       0.98090000
    56  H          0.90650000       0.59760000       0.01910000
    57  H          0.26500000       0.32650000       0.01240000
    58  H          0.73500000       0.67350000       0.98760000
    59  C          0.09654000       0.21194000       0.05202000
    60  C          0.90346000       0.78806000       0.94798000
    61  H          0.07020000       0.22900000       0.11010000
    62  H          0.92980000       0.77100000       0.88990000
    63  H          0.17220000       0.13070000       0.05950000
    64  H          0.82780000       0.86930000       0.94050000
    65  H          0.00060000       0.20670000       0.02800000
    66  H         -0.00060000       0.79330000       0.97200000
    67  O          0.00591170       0.63316130       0.62480900
    68  O         -0.00591170       0.36683870       0.37519100
    69  C          0.13192000       0.58028190       0.31948130
    70  C          0.86808000       0.41971810       0.68051870
    71  C          0.06502000       0.53897180       0.41069120
    72  C          0.93498000       0.46102820       0.58930880
    73  C          0.00492000       0.57173180       0.56039120
    74  C         -0.00492000       0.42826820       0.43960880
    75  C          0.18712000       0.61752190       0.24316130
    76  C          0.81288000       0.38247810       0.75683870
    77  C          0.06883000       0.75018190       0.59770130
    78  C          0.93117000       0.24981810       0.40229870
    79  H          0.00630000       0.81570000       0.55020000
    80  H         -0.00630000       0.18430000       0.44980000
    81  H          0.17950000       0.73280000       0.57390000
    82  H          0.82050000       0.26720000       0.42610000
    83  C          0.06852000       0.60886190       0.47190130
    84  C          0.93148000       0.39113810       0.52809870
    85  H          0.11490000       0.68230000       0.45250000
    86  H          0.88510000       0.31770000       0.54750000
    87  C          0.06053000       0.79822000       0.67918130
    88  C          0.93947000       0.20178000       0.32081870
    89  H          0.12570000       0.73270000       0.72550000
    90  H          0.87430000       0.26730000       0.27450000
    91  H          0.95010000       0.81060000       0.70430000
    92  H          0.04990000       0.18940000       0.29570000
    93  C          0.24972000       0.66342000       0.15139130
    94  C          0.75028000       0.33658000       0.84860870
    95  N          0.37053000       0.75273000       0.97096860
    96  N          0.62947000       0.24727000       0.02903140
    97  C          0.11863000       0.92532000       0.65649140
    98  C          0.88137000       0.07468000       0.34350860
    99  H          0.22880000       0.91230000       0.63130000
   100  H          0.77120000       0.08770000       0.36870000
   101  H          0.05380000       0.99000000       0.60960000
   102  H          0.94620000       0.01000000       0.39040000
   103  C          0.27393000       0.58792000       0.09218150
   104  C          0.72607000       0.41208000       0.90781850
   105  H          0.25050000       0.50470000       0.11150000
   106  H          0.74950000       0.49530000       0.88850000
   107  C          0.28823000       0.78462000       0.11816150
   108  C          0.71177000       0.21538000       0.88183850
   109  H          0.27520000       0.83930000       0.15520000
   110  H          0.72480000       0.16070000       0.84480000
   111  C          0.33303000       0.63713000       0.00442170
   112  C          0.66697000       0.36287000      -0.00442170
   113  H          0.34760000       0.58460000       0.96570000
   114  H          0.65240000       0.41540000       0.03430000
   115  C          0.11183000       0.97822000       0.73607170
   116  C          0.88817000       0.02178000       0.26392830
   117  H          0.17500000       0.91330000       0.78360000
   118  H          0.82500000       0.08670000       0.21640000
   119  H          0.00130000      -0.00620000       0.76040000
   120  H         -0.00130000       0.00620000       0.23960000
   121  C          0.17434000       0.10362000       0.71122000
   122  C          0.82566000       0.89638000       0.28878000
   123  H          0.16890000       0.13220000       0.76460000
   124  H          0.83110000       0.86780000       0.23540000
   125  H          0.10980000       0.16930000       0.66580000
   126  H          0.89020000       0.83070000       0.33420000
   127  H          0.28400000       0.08870000       0.68740000
   128  H          0.71600000       0.91130000       0.31260000
   129  C          0.34664000       0.82353000       0.02866180
   130  C          0.65336000       0.17647000       0.97133820
   131  H          0.37110000       0.90630000       0.00710000
   132  H          0.62890000       0.09370000      -0.00710000
