data_VOCWAO
_symmetry_space_group_name_H-M    'P1'
_symmetry_Int_Tables_number       1
loop_
_symmetry_equiv_pos_site_id
_symmetry_equiv_pos_as_xyz
1 x,y,z
_cell_length_a                   8.3954
_cell_length_b                   10.8087
_cell_length_c                   15.24312
_cell_angle_alpha                72.187
_cell_angle_beta                 82.947
_cell_angle_gamma                76.075
loop_
_atom_site_label
_atom_site_type_symbol
_atom_site_fract_x
_atom_site_fract_y
_atom_site_fract_z
     1  C          0.13630000       0.57720000       0.32220000
     2  C          0.86370000       0.42280000       0.67780000
     3  C          0.18030000       0.62120000       0.23820000
     4  C          0.81970000       0.37880000       0.76180000
     5  C          0.06620000       0.54420000       0.40720000
     6  C          0.93380000       0.45580000       0.59280000
     7  C          0.07361500       0.75091500       0.60020000
     8  C          0.92638500       0.24908500       0.39980000
     9  H          0.18778200       0.73070700       0.57813100
    10  H          0.81221800       0.26929300       0.42186900
    11  H          0.01241800       0.81822500       0.55035100
    12  H          0.98758200       0.18177500       0.44964900
    13  O          0.00631100       0.63081200       0.62741800
    14  O         -0.00631100       0.36918800       0.37258200
    15  C          0.00420000       0.57220000       0.55901700
    16  C         -0.00420000       0.42780000       0.44098300
    17  C          0.18121500       0.10521600       0.71730000
    18  C          0.81878500       0.89478400       0.28270000
    19  H          0.12852900       0.17001200       0.66433900
    20  H          0.87147100       0.82998800       0.33566100
    21  H          0.29760400       0.08482900       0.70324600
    22  H          0.70239600       0.91517100       0.29675400
    23  H          0.15917300       0.14033600       0.76889700
    24  H          0.84082700       0.85966400       0.23110300
    25  C          0.25220000       0.66120000       0.15520000
    26  C          0.74780000       0.33880000       0.84480000
    27  C          0.32920000       0.63630000      -0.00230000
    28  C          0.67080000       0.36370000       0.00230000
    29  H          0.33917400       0.58159500       0.96010800
    30  H          0.66082600       0.41840500       0.03989200
    31  C          0.27420000       0.58420000       0.09151900
    32  C          0.72580000       0.41580000       0.90848100
    33  H          0.25134600       0.49956300       0.11111300
    34  H          0.74865400       0.50043700       0.88888700
    35  C          0.12561500       0.92801500       0.65820000
    36  C          0.87438500       0.07198500       0.34180000
    37  H          0.23946700       0.91127700       0.63493500
    38  H          0.76053300       0.08872300       0.36506500
    39  H          0.06310800      -0.00370300       0.60926200
    40  H          0.93689200       0.00370300       0.39073800
    41  C          0.06761900       0.61320000       0.46830000
    42  C          0.93238100       0.38680000       0.53170000
    43  H          0.11195400       0.68905700       0.44947500
    44  H          0.88804600       0.31094300       0.55052500
    45  C          0.11411700       0.97791700       0.73930000
    46  C          0.88588300       0.02208300       0.26070000
    47  H          0.17576400       0.90948900       0.78826000
    48  H          0.82423600       0.09051100       0.21174000
    49  H          0.00015700      -0.00408700       0.76189300
    50  H         -0.00015700       0.00408700       0.23810700
    51  C          0.28420000       0.78920000       0.11720000
    52  C          0.71580000       0.21080000       0.88280000
    53  H          0.26590100       0.84788900       0.15175500
    54  H          0.73409900       0.15211100       0.84824500
    55  N          0.36831600       0.75341900       0.95870000
    56  N          0.63168400       0.24658100       0.04130000
    57  C          0.06021400       0.79831500       0.67920000
    58  C          0.93978600       0.20168500       0.32080000
    59  H          0.12204200       0.72998600       0.72810000
    60  H          0.87795800       0.27001400       0.27190000
    61  H          0.94595100       0.81504000       0.70147100
    62  H          0.05404900       0.18496000       0.29852900
    63  C          0.34520000       0.82620000       0.02430000
    64  C          0.65480000       0.17380000       0.97570000
    65  H          0.37441900       0.90833000       0.00395500
    66  H          0.62558100       0.09167000      -0.00395500
    67  O          0.40531600       0.49391700       0.68130000
    68  O          0.59468400       0.50608300       0.31870000
    69  C          0.43120000       0.39641600       0.55271900
    70  C          0.56880000       0.60358400       0.44728100
    71  H          0.39324600       0.32211300       0.58967200
    72  H          0.60675400       0.67788700       0.41032800
    73  C          0.57321500       0.76961600       0.61220000
    74  C          0.42678500       0.23038400       0.38780000
    75  C          0.52820000       0.59331500       0.54141800
    76  C          0.47180000       0.40668500       0.45858200
    77  N          0.64130000       0.04430000       0.73930000
    78  N          0.35870000       0.95570000       0.26070000
    79  C          0.64621300       0.97991600       0.59920000
    80  C          0.35378700       0.02008400       0.40080000
    81  H          0.66626700      -0.00162100       0.53530800
    82  H          0.33373300       0.00162100       0.46469200
    83  C          0.59920000       0.86111500       0.64941700
    84  C          0.40080000       0.13888500       0.35058300
    85  C          0.44520000       0.49320000       0.59320000
    86  C          0.55480000       0.50680000       0.40680000
    87  C          0.55171400       0.69241500       0.57620000
    88  C          0.44828600       0.30758500       0.42380000
    89  C          0.56820000       0.84701700       0.74441800
    90  C          0.43180000       0.15298300       0.25558200
    91  H          0.52716700       0.77285600       0.77918600
    92  H          0.47283300       0.22714400       0.22081400
    93  C          0.29520000       0.41041600       0.82420000
    94  C          0.70480000       0.58958400       0.17580000
    95  H          0.22015300       0.49566800       0.81848000
    96  H          0.77984700       0.50433200       0.18152000
    97  H          0.39607400       0.41279300       0.84826500
    98  H          0.60392600       0.58720700       0.15173500
    99  C          0.59091700       0.93241900       0.79230000
   100  C          0.40908300       0.06758100       0.20770000
   101  H          0.57330000       0.91416000       0.85556800
   102  H          0.42670000       0.08584000       0.14443200
   103  C          0.09281900       0.20520000       0.06630000
   104  C          0.90718100       0.79480000       0.93370000
   105  H          0.04484700       0.23834100       0.11745100
   106  H          0.95515300       0.76165900       0.88254900
   107  H          0.17731400       0.12692700       0.08771000
   108  H          0.82268600       0.87307300       0.91229000
   109  H          0.00949600       0.18286500       0.03973900
   110  H         -0.00949600       0.81713500       0.96026100
   111  C          0.33320000       0.38611800       0.73030000
   112  C          0.66680000       0.61388200       0.26970000
   113  H          0.40846700       0.30155700       0.73369800
   114  H          0.59153300       0.69844300       0.26630200
   115  H          0.23342700       0.38895300       0.70257800
   116  H          0.76657300       0.61104700       0.29742200
   117  C          0.21920000       0.30030000       0.89040000
   118  C          0.78080000       0.69970000       0.10960000
   119  H          0.29637800       0.21577400       0.89599100
   120  H          0.70362200       0.78422600       0.10400900
   121  H          0.12133000       0.29664100       0.86427700
   122  H          0.87867000       0.70335900       0.13572300
   123  C          0.66330000       0.07130000       0.64430000
   124  C          0.33670000       0.92870000       0.35570000
   125  H          0.69056100       0.15064400       0.60906500
   126  H          0.30943900       0.84935600       0.39093500
   127  C          0.17330000       0.31930000       0.98840000
   128  C          0.82670000       0.68070000       0.01160000
   129  H          0.09538600       0.40407300       0.98135700
   130  H          0.90461400       0.59592700       0.01864300
   131  H          0.27113700       0.32628200       0.01228800
   132  H          0.72886300       0.67371800       0.98771200
   133  C          0.78120000       0.70030000       0.11040000
   134  C          0.21880000       0.29970000       0.88960000
   135  C          0.82730000       0.68130000       0.01240000
   136  C          0.17270000       0.31870000       0.98760000
