data_VUSDIX04
_symmetry_space_group_name_H-M    'P1'
_symmetry_Int_Tables_number       1
loop_
_symmetry_equiv_pos_site_id
_symmetry_equiv_pos_as_xyz
1 x,y,z
_cell_length_a                   16.0812
_cell_length_b                   8.097611
_cell_length_c                   15.5572
_cell_angle_alpha                90.0
_cell_angle_beta                 112.2267
_cell_angle_gamma                90.0
loop_
_atom_site_label
_atom_site_type_symbol
_atom_site_fract_x
_atom_site_fract_y
_atom_site_fract_z
     1  N          0.66512000       0.65045000       0.53103000
     2  N          0.33488000       0.15045000       0.96897000
     3  N          0.33488000       0.34955000       0.46897000
     4  N          0.66512000       0.84955000       0.03103000
     5  H          0.69030000       0.73060000       0.56730000
     6  H          0.30970000       0.23060000       0.93270000
     7  H          0.30970000       0.26940000       0.43270000
     8  H          0.69030000       0.76940000       0.06730000
     9  N          0.57812000       0.67455000       0.47553000
    10  N          0.42188000       0.17455000       0.02447000
    11  N          0.42188000       0.32545000       0.52447000
    12  N          0.57812000       0.82545000       0.97553000
    13  C          0.55203000       0.53916000       0.42303000
    14  C          0.44797000       0.03916000       0.07697000
    15  C          0.44797000       0.46084000       0.57697000
    16  C          0.55203000       0.96084000       0.92303000
    17  C          0.62343000       0.42186000       0.44653000
    18  C          0.37657000       0.92186000       0.05347000
    19  C          0.37657000       0.57814000       0.55347000
    20  C          0.62343000       0.07814000       0.94653000
    21  C          0.69593000       0.50226000       0.51683000
    22  C          0.30407000       0.00226000       0.98317000
    23  C          0.30407000       0.49774000       0.48317000
    24  C          0.69593000      -0.00226000       0.01683000
    25  C          0.77933000       0.42586000       0.56013000
    26  C          0.22067000       0.92586000       0.93987000
    27  C          0.22067000       0.57414000       0.43987000
    28  C          0.77933000       0.07414000       0.06013000
    29  H          0.82630000       0.48030000       0.60570000
    30  H          0.17370000       0.98030000       0.89430000
    31  H          0.17370000       0.51970000       0.39430000
    32  H          0.82630000       0.01970000       0.10570000
    33  C          0.78983000       0.26846000       0.53363000
    34  C          0.21017000       0.76846000       0.96637000
    35  C          0.21017000       0.73154000       0.46637000
    36  C          0.78983000       0.23154000       0.03363000
    37  C          0.71853000       0.18646000       0.46413000
    38  C          0.28147000       0.68646000       0.03587000
    39  C          0.28147000       0.81354000       0.53587000
    40  C          0.71853000       0.31354000       0.96413000
    41  H          0.72690000       0.07910000       0.44760000
    42  H          0.27310000       0.57910000       0.05240000
    43  H          0.27310000       0.92090000       0.55240000
    44  H          0.72690000       0.42090000       0.94760000
    45  C          0.63613000       0.26296000       0.41993000
    46  C          0.36387000       0.76296000       0.08007000
    47  C          0.36387000       0.73704000       0.58007000
    48  C          0.63613000       0.23704000       0.91993000
    49  H          0.58990000       0.20860000       0.37310000
    50  H          0.41010000       0.70860000       0.12690000
    51  H          0.41010000       0.79140000       0.62690000
    52  H          0.58990000       0.29140000       0.87310000
    53  S          0.89386800       0.16207160       0.58142800
    54  S          0.10613200       0.66207160       0.91857200
    55  S          0.10613200       0.83792840       0.41857200
    56  S          0.89386800       0.33792840       0.08142800
    57  C          0.91893000       0.16815000       0.70173000
    58  C          0.08107000       0.66815000       0.79827000
    59  C          0.08107000       0.83185000       0.29827000
    60  C          0.91893000       0.33185000       0.20173000
    61  C          0.86293000       0.10685000       0.74253000
    62  C          0.13707000       0.60685000       0.75747000
    63  C          0.13707000       0.89315000       0.25747000
    64  C          0.86293000       0.39315000       0.24253000
    65  C          0.88893000       0.10846000       0.83953000
    66  C          0.11107000       0.60846000       0.66047000
    67  C          0.11107000       0.89154000       0.16047000
    68  C          0.88893000       0.39154000       0.33953000
    69  H          0.84980000       0.06950000       0.86620000
    70  H          0.15020000       0.56950000       0.63380000
    71  H          0.15020000       0.93050000       0.13380000
    72  H          0.84980000       0.43050000       0.36620000
    73  C          0.97313000       0.16826000       0.89563000
    74  C          0.02687000       0.66826000       0.60437000
    75  C          0.02687000       0.83174000       0.10437000
    76  C          0.97313000       0.33174000       0.39563000
    77  H         -0.00830000       0.16490000       0.95990000
    78  H          0.00830000       0.66490000       0.54010000
    79  H          0.00830000       0.83510000       0.04010000
    80  H         -0.00830000       0.33510000       0.45990000
    81  C          0.02803000       0.23156000       0.85534000
    82  C          0.97197000       0.73156000       0.64466000
    83  C          0.97197000       0.76844000       0.14466000
    84  C          0.02803000       0.26844000       0.35534000
    85  H          0.08370000       0.27390000       0.89280000
    86  H          0.91630000       0.77390000       0.60720000
    87  H          0.91630000       0.72610000       0.10720000
    88  H          0.08370000       0.22610000       0.39280000
    89  C          0.00273000       0.23416000       0.75983000
    90  C         -0.00273000       0.73416000       0.74017000
    91  C         -0.00273000       0.76584000       0.24017000
    92  C          0.00273000       0.26584000       0.25983000
    93  H          0.04090000       0.27930000       0.73380000
    94  H          0.95910000       0.77930000       0.76620000
    95  H          0.95910000       0.72070000       0.26620000
    96  H          0.04090000       0.22070000       0.23380000
    97  C          0.77323000       0.02257000       0.68783000
    98  C          0.22677000       0.52257000       0.81217000
    99  C          0.22677000       0.97743000       0.31217000
   100  C          0.77323000       0.47743000       0.18783000
   101  O          0.77282000       0.88766000       0.65062000
   102  O          0.22718000       0.38766000       0.84938000
   103  O          0.22718000       0.11234000       0.34938000
   104  O          0.77282000       0.61234000       0.15062000
   105  N          0.70103000       0.10125000       0.68483000
   106  N          0.29897000       0.60125000       0.81517000
   107  N          0.29897000       0.89875000       0.31517000
   108  N          0.70103000       0.39875000       0.18483000
   109  H          0.69930000       0.18570000       0.70540000
   110  H          0.30070000       0.68570000       0.79460000
   111  H          0.30070000       0.81430000       0.29460000
   112  H          0.69930000       0.31430000       0.20540000
   113  C          0.61053000       0.03617000       0.63604000
   114  C          0.38947000       0.53617000       0.86396000
   115  C          0.38947000       0.96383000       0.36396000
   116  C          0.61053000       0.46383000       0.13604000
   117  H          0.56720000       0.11260000       0.64160000
   118  H          0.43280000       0.61260000       0.85840000
   119  H          0.43280000       0.88740000       0.35840000
   120  H          0.56720000       0.38740000       0.14160000
   121  H          0.60460000       0.93210000       0.66280000
   122  H          0.39540000       0.43210000       0.83720000
   123  H          0.39540000       0.06790000       0.33720000
   124  H          0.60460000       0.56790000       0.16280000
   125  H          0.60020000       0.02070000       0.57160000
   126  H          0.39980000       0.52070000       0.92840000
   127  H          0.39980000       0.97930000       0.42840000
   128  H          0.60020000       0.47930000       0.07160000
   129  C          0.45833000       0.52816000       0.35903000
   130  C          0.54167000       0.02816000       0.14097000
   131  C          0.54167000       0.47184000       0.64097000
   132  C          0.45833000       0.97184000       0.85903000
   133  H          0.41800000       0.60140000       0.36840000
   134  H          0.58200000       0.10140000       0.13160000
   135  H          0.58200000       0.39860000       0.63160000
   136  H          0.41800000       0.89860000       0.86840000
   137  C          0.42513000       0.42276000       0.28833000
   138  C          0.57487000       0.92276000       0.21167000
   139  C          0.57487000       0.57724000       0.71167000
   140  C          0.42513000       0.07724000       0.78833000
   141  H          0.46520000       0.35510000       0.27460000
   142  H          0.53480000       0.85510000       0.22540000
   143  H          0.53480000       0.64490000       0.72540000
   144  H          0.46520000       0.14490000       0.77460000
   145  C          0.32913000       0.40706000       0.23103000
   146  C          0.67087000       0.90706000       0.26897000
   147  C          0.67087000       0.59294000       0.76897000
   148  C          0.32913000       0.09294000       0.73103000
   149  N          0.27152000       0.51125000       0.24502000
   150  N          0.72848000       0.01125000       0.25498000
   151  N          0.72848000       0.48875000       0.75498000
   152  N          0.27152000      -0.01125000       0.74502000
   153  C          0.18453000       0.48936000       0.19353000
   154  C          0.81547000      -0.01064000       0.30647000
   155  C          0.81547000       0.51064000       0.80647000
   156  C          0.18453000       0.01064000       0.69353000
   157  H          0.14360000       0.55870000       0.20470000
   158  H          0.85640000       0.05870000       0.29530000
   159  H          0.85640000       0.44130000       0.79530000
   160  H          0.14360000       0.94130000       0.70470000
   161  C          0.15103000       0.37286000       0.12553000
   162  C          0.84897000       0.87286000       0.37447000
   163  C          0.84897000       0.62714000       0.87447000
   164  C          0.15103000       0.12714000       0.62553000
   165  H          0.08970000       0.36490000       0.09100000
   166  H          0.91030000       0.86490000       0.40900000
   167  H          0.91030000       0.63510000       0.90900000
   168  H          0.08970000       0.13510000       0.59100000
   169  C          0.21073000       0.26776000       0.10983000
   170  C          0.78927000       0.76776000       0.39017000
   171  C          0.78927000       0.73224000       0.89017000
   172  C          0.21073000       0.23224000       0.60983000
   173  H          0.19070000       0.18730000       0.06380000
   174  H          0.80930000       0.68730000       0.43620000
   175  H          0.80930000       0.81270000       0.93620000
   176  H          0.19070000       0.31270000       0.56380000
   177  C          0.30053000       0.28366000       0.16333000
   178  C          0.69947000       0.78366000       0.33667000
   179  C          0.69947000       0.71634000       0.83667000
   180  C          0.30053000       0.21634000       0.66333000
   181  H          0.34200000       0.21260000       0.15450000
   182  H          0.65800000       0.71260000       0.34550000
   183  H          0.65800000       0.78740000       0.84550000
   184  H          0.34200000       0.28740000       0.65450000
