data_VUSDIX01
_symmetry_space_group_name_H-M    'P1'
_symmetry_Int_Tables_number       1
loop_
_symmetry_equiv_pos_site_id
_symmetry_equiv_pos_as_xyz
1 x,y,z
_cell_length_a                   11.86385
_cell_length_b                   12.40675
_cell_length_c                   15.00077
_cell_angle_alpha                81.7142
_cell_angle_beta                 81.1502
_cell_angle_gamma                65.9852
loop_
_atom_site_label
_atom_site_type_symbol
_atom_site_fract_x
_atom_site_fract_y
_atom_site_fract_z
     1  N          0.64445000       0.70535000       0.13864000
     2  N          0.35555000       0.29465000       0.86136000
     3  H          0.64950000       0.62650000       0.14540000
     4  H          0.35050000       0.37350000       0.85460000
     5  N          0.53925000       0.79375000       0.16814000
     6  N          0.46075000       0.20625000       0.83186000
     7  C          0.55485000       0.89156000       0.13644000
     8  C          0.44515000       0.10844000       0.86356000
     9  C          0.67446000       0.86815000       0.08584000
    10  C          0.32554000       0.13185000       0.91416000
    11  C          0.72746000       0.74575000       0.08924000
    12  C          0.27254000       0.25425000       0.91076000
    13  C          0.84766000       0.68125000       0.04874000
    14  C          0.15234000       0.31875000       0.95126000
    15  H          0.88110000       0.59880000       0.05220000
    16  H          0.11890000       0.40120000       0.94780000
    17  C          0.91276000       0.74555000       0.00384000
    18  C          0.08724000       0.25445000      -0.00384000
    19  C          0.85946000       0.87226000      -0.00254000
    20  C          0.14054000       0.12774000       0.00254000
    21  H          0.90430000       0.91440000       0.96560000
    22  H          0.09570000       0.08560000       0.03440000
    23  C          0.74226000       0.93185000       0.03824000
    24  C          0.25774000       0.06815000       0.96176000
    25  H          0.70810000       0.01420000       0.03410000
    26  H          0.29190000       0.98580000       0.96590000
    27  S          0.05921150       0.66611150       0.94418880
    28  S          0.94078850       0.33388850       0.05581120
    29  C          0.16266000       0.69415000       0.00224000
    30  C          0.83734000       0.30585000      -0.00224000
    31  C          0.28696000       0.66175000       0.96626000
    32  C          0.71304000       0.33825000       0.03374000
    33  C          0.36706000       0.68316000       0.01325000
    34  C          0.63294000       0.31684000       0.98675000
    35  H          0.44960000       0.66210000       0.98960000
    36  H          0.55040000       0.33790000       0.01040000
    37  C          0.32767000       0.73397000       0.09265000
    38  C          0.67233000       0.26603000       0.90735000
    39  H          0.38250000       0.74770000       0.12290000
    40  H          0.61750000       0.25230000       0.87710000
    41  C          0.20397000       0.76536000       0.12835000
    42  C          0.79603000       0.23464000       0.87165000
    43  H          0.17620000       0.80040000       0.18260000
    44  H          0.82380000       0.19960000       0.81740000
    45  C          0.12346000       0.74485000       0.08424000
    46  C          0.87654000       0.25515000       0.91576000
    47  H          0.04140000       0.76480000       0.10920000
    48  H          0.95860000       0.23520000       0.89080000
    49  C          0.33376000       0.60256000       0.87945000
    50  C          0.66624000       0.39744000       0.12055000
    51  O          0.28745000       0.53924000       0.85797000
    52  O          0.71255000       0.46076000       0.14203000
    53  N          0.42636000       0.61995000       0.82886000
    54  N          0.57364000       0.38005000       0.17114000
    55  H          0.45250000       0.67850000       0.84560000
    56  H          0.54750000       0.32150000       0.15440000
    57  C          0.48118000       0.56278000       0.74594000
    58  C          0.51882000       0.43722000       0.25406000
    59  H          0.54790000       0.58540000       0.71890000
    60  H          0.45210000       0.41460000       0.28110000
    61  H          0.41930000       0.58640000       0.70460000
    62  H          0.58070000       0.41360000       0.29540000
    63  H          0.51250000       0.47820000       0.75960000
    64  H          0.48750000       0.52180000       0.24040000
    65  C          0.45156000       0.00487000       0.15595000
    66  C          0.54844000      -0.00487000       0.84405000
    67  H          0.37950000      -0.00030000       0.18690000
    68  H          0.62050000       0.00030000       0.81310000
    69  C          0.44907000       0.10946000       0.13545000
    70  C          0.55093000       0.89054000       0.86455000
    71  H          0.52150000       0.11530000       0.10610000
    72  H          0.47850000       0.88470000       0.89390000
    73  C          0.34176000       0.22286000       0.15374000
    74  C          0.65824000       0.77714000       0.84626000
    75  N          0.36885000       0.31875000       0.13144000
    76  N          0.63115000       0.68125000       0.86856000
    77  C          0.27527000       0.42287000       0.14216000
    78  C          0.72473000       0.57713000       0.85784000
    79  H          0.29230000       0.49010000       0.12500000
    80  H          0.70770000       0.50990000       0.87500000
    81  C          0.15786000       0.43966000       0.17555000
    82  C          0.84214000       0.56034000       0.82445000
    83  H          0.09680000       0.51530000       0.18140000
    84  H          0.90320000       0.48470000       0.81860000
    85  C          0.13176000       0.34226000       0.20014000
    86  C          0.86824000       0.65774000       0.79986000
    87  H          0.05210000       0.34940000       0.22420000
    88  H          0.94790000       0.65060000       0.77580000
    89  C          0.22476000       0.23256000       0.18884000
    90  C          0.77524000       0.76744000       0.81116000
    91  H          0.20820000       0.16470000       0.20500000
    92  H          0.79180000       0.83530000       0.79500000
    93  N          0.76044000       0.78734000       0.59443000
    94  N          0.23956000       0.21266000       0.40557000
    95  H          0.84050000       0.78650000       0.60540000
    96  H          0.15950000       0.21350000       0.39460000
    97  N          0.65634000       0.88384000       0.61533000
    98  N          0.34366000       0.11616000       0.38467000
    99  C          0.56285000       0.86305000       0.59414000
   100  C          0.43715000       0.13695000       0.40586000
   101  C          0.60625000       0.75225000       0.55724000
   102  C          0.39375000       0.24775000       0.44276000
   103  C          0.73415000       0.70595000       0.56044000
   104  C          0.26585000       0.29405000       0.43956000
   105  C          0.81185000       0.59425000       0.53134000
   106  C          0.18815000       0.40575000       0.46866000
   107  H          0.89640000       0.56200000       0.53710000
   108  H          0.10360000       0.43800000       0.46290000
   109  C          0.75815000       0.53415000       0.49414000
   110  C          0.24185000       0.46585000       0.50586000
   111  C          0.62845000       0.58335000       0.48744000
   112  C          0.37155000       0.41665000       0.51256000
   113  H          0.59410000       0.54230000       0.46040000
   114  H          0.40590000       0.45770000       0.53960000
   115  C          0.55245000       0.69025000       0.51984000
   116  C          0.44755000       0.30975000       0.48016000
   117  H          0.46720000       0.72050000       0.51700000
   118  H          0.53280000       0.27950000       0.48300000
   119  S          0.85775140       0.40292120       0.44427120
   120  S          0.14224860       0.59707880       0.55572880
   121  C          0.81045000       0.29305000       0.50674000
   122  C          0.18955000       0.70695000       0.49326000
   123  C          0.85025000       0.18115000       0.47454000
   124  C          0.14975000       0.81885000       0.52546000
   125  C          0.81435000       0.09605000       0.52354000
   126  C          0.18565000       0.90395000       0.47646000
   127  H          0.84160000       0.02210000       0.50180000
   128  H          0.15840000       0.97790000       0.49820000
   129  C          0.73936000       0.11705000       0.60364000
   130  C          0.26064000       0.88295000       0.39636000
   131  H          0.71580000       0.05820000       0.63560000
   132  H          0.28420000       0.94180000       0.36440000
   133  C          0.69905000       0.22675000       0.63634000
   134  C          0.30095000       0.77325000       0.36366000
   135  H          0.64720000       0.24190000       0.69020000
   136  H          0.35280000       0.75810000       0.30980000
   137  C          0.73495000       0.31365000       0.58984000
   138  C          0.26505000       0.68635000       0.41016000
   139  H          0.70930000       0.38620000       0.61330000
   140  H          0.29070000       0.61380000       0.38670000
   141  C          0.93295000       0.15645000       0.38604000
   142  C          0.06705000       0.84355000       0.61396000
   143  O          0.01464000       0.19483000       0.36503000
   144  O          0.98536000       0.80517000       0.63497000
   145  N          0.91085000       0.09094000       0.33414000
   146  N          0.08915000       0.90906000       0.66586000
   147  H          0.85150000       0.05450000       0.34740000
   148  H          0.14850000       0.94550000       0.65260000
   149  C          0.98336000       0.06306000       0.24655000
   150  C          0.01664000       0.93694000       0.75345000
   151  H          0.95610000       0.01440000       0.21830000
   152  H          0.04390000       0.98560000       0.78170000
   153  H          0.06950000       0.02130000       0.25510000
   154  H          0.93050000       0.97870000       0.74490000
   155  H          0.97190000       0.13510000       0.20850000
   156  H          0.02810000       0.86490000       0.79150000
   157  C          0.43325000       0.94925000       0.60784000
   158  C          0.56675000       0.05075000       0.39216000
   159  H          0.37240000       0.93010000       0.59000000
   160  H          0.62760000       0.06990000       0.41000000
   161  C          0.39685000       0.04975000       0.64284000
   162  C          0.60315000       0.95025000       0.35716000
   163  H          0.45730000       0.06840000       0.66150000
   164  H          0.54270000       0.93160000       0.33850000
   165  C          0.26745000       0.13595000       0.65504000
   166  C          0.73255000       0.86405000       0.34496000
   167  C          0.24246000       0.24555000       0.68404000
   168  C          0.75754000       0.75445000       0.31596000
   169  H          0.30620000       0.26400000       0.69730000
   170  H          0.69380000       0.73600000       0.30270000
   171  C          0.12126000       0.32625000       0.69274000
   172  C          0.87874000       0.67375000       0.30726000
   173  H          0.10210000       0.39930000       0.71350000
   174  H          0.89790000       0.60070000       0.28650000
   175  C          0.02916000       0.29896000       0.67075000
   176  C          0.97084000       0.70104000       0.32925000
   177  H          0.94720000       0.35370000       0.67380000
   178  H          0.05280000       0.64630000       0.32620000
   179  C          0.06096000       0.18856000       0.64405000
   180  C          0.93904000       0.81144000       0.35595000
   181  H         -0.00230000       0.16940000       0.63040000
   182  H          0.00230000       0.83060000       0.36960000
   183  N          0.17634000       0.10654000       0.63603000
   184  N          0.82366000       0.89346000       0.36397000
