data_VUSDIX
_symmetry_space_group_name_H-M    'P1'
_symmetry_Int_Tables_number       1
loop_
_symmetry_equiv_pos_site_id
_symmetry_equiv_pos_as_xyz
1 x,y,z
_cell_length_a                   4.54272
_cell_length_b                   11.75045
_cell_length_c                   34.833914
_cell_angle_alpha                90.0
_cell_angle_beta                 92.1342
_cell_angle_gamma                90.0
loop_
_atom_site_label
_atom_site_type_symbol
_atom_site_fract_x
_atom_site_fract_y
_atom_site_fract_z
     1  N          0.62191300       0.09224000       0.89383840
     2  N          0.37808700       0.59224000       0.60616160
     3  N          0.37808700       0.90776000       0.10616160
     4  N          0.62191300       0.40776000       0.39383840
     5  H          0.75313000       0.02550000       0.89808400
     6  H          0.24687000       0.52550000       0.60191600
     7  H          0.24687000       0.97450000       0.10191600
     8  H          0.75313000       0.47450000       0.39808400
     9  N          0.62271200       0.14734000       0.85942860
    10  N          0.37728800       0.64734000       0.64057140
    11  N          0.37728800       0.85266000       0.14057140
    12  N          0.62271200       0.35266000       0.35942860
    13  C          0.43091600       0.23365000       0.86206830
    14  C          0.56908400       0.73365000       0.63793170
    15  C          0.56908400       0.76635000       0.13793170
    16  C          0.43091600       0.26635000       0.36206830
    17  C          0.29931400       0.23545000       0.89874810
    18  C          0.70068600       0.73545000       0.60125190
    19  C          0.70068600       0.76455000       0.10125190
    20  C          0.29931400       0.26455000       0.39874810
    21  C          0.43461500       0.14125000       0.91828000
    22  C          0.56538500       0.64125000       0.58172000
    23  C          0.56538500       0.85875000       0.08172000
    24  C          0.43461500       0.35875000       0.41828000
    25  C          0.37591400       0.11314000       0.95619810
    26  C          0.62408600       0.61314000       0.54380190
    27  C          0.62408600       0.88686000       0.04380190
    28  C          0.37591400       0.38686000       0.45619810
    29  H          0.47110000       0.04930000       0.96860000
    30  H          0.52890000       0.54930000       0.53140000
    31  H          0.52890000       0.95070000       0.03140000
    32  H          0.47110000       0.45070000       0.46860000
    33  C          0.17971400       0.17875000       0.97528850
    34  C          0.82028600       0.67875000       0.52471150
    35  C          0.82028600       0.82125000       0.02471150
    36  C          0.17971400       0.32125000       0.47528850
    37  C          0.03951400       0.27274000       0.95595820
    38  C          0.96048600       0.77274000       0.54404180
    39  C          0.96048600       0.72726000       0.04404180
    40  C          0.03951400       0.22726000       0.45595820
    41  H          0.90020000       0.31740000       0.96950000
    42  H          0.09980000       0.81740000       0.53050000
    43  H          0.09980000       0.68260000       0.03050000
    44  H          0.90020000       0.18260000       0.46950000
    45  C          0.09681400       0.30105000       0.91888820
    46  C          0.90318600       0.80105000       0.58111180
    47  C          0.90318600       0.69895000       0.08111180
    48  C          0.09681400       0.19895000       0.41888820
    49  H          0.00000000       0.36490000       0.90680000
    50  H          0.00000000       0.86490000       0.59320000
    51  H         -0.00000000       0.63510000       0.09320000
    52  H         -0.00000000       0.13510000       0.40680000
    53  S          0.09034000       0.14312110       0.02287400
    54  S          0.90966000       0.64312110       0.47712600
    55  S          0.90966000       0.85687890       0.97712600
    56  S          0.09034000       0.35687890       0.52287400
    57  C          0.23531300       0.26094000       0.04963170
    58  C          0.76468700       0.76094000       0.45036830
    59  C          0.76468700       0.73906000       0.95036830
    60  C          0.23531300       0.23906000       0.54963170
    61  C          0.16411300       0.27765000       0.08790170
    62  C          0.83588700       0.77765000       0.41209830
    63  C          0.83588700       0.72235000       0.91209830
    64  C          0.16411300       0.22235000       0.58790170
    65  C          0.27731500       0.37635000       0.10698160
    66  C          0.72268500       0.87635000       0.39301840
    67  C          0.72268500       0.62365000       0.89301840
    68  C          0.27731500       0.12365000       0.60698160
    69  H          0.23280000       0.38840000       0.13340000
    70  H          0.76720000       0.88840000       0.36660000
    71  H          0.76720000       0.61160000       0.86660000
    72  H          0.23280000       0.11160000       0.63340000
    73  C          0.44721300       0.45455000       0.08902000
    74  C          0.55278700       0.95455000       0.41098000
    75  C          0.55278700       0.54545000       0.91098000
    76  C          0.44721300       0.04545000       0.58902000
    77  H          0.51540000       0.52150000       0.10240000
    78  H          0.48460000       0.02150000       0.39760000
    79  H          0.48460000       0.47850000       0.89760000
    80  H          0.51540000       0.97850000       0.60240000
    81  C          0.51931400       0.43595000       0.05144180
    82  C          0.48068600       0.93595000       0.44855820
    83  C          0.48068600       0.56405000       0.94855820
    84  C          0.51931400       0.06405000       0.55144180
    85  H          0.64090000       0.48950000       0.03860000
    86  H          0.35910000      -0.01050000       0.46140000
    87  H          0.35910000       0.51050000       0.96140000
    88  H          0.64090000       0.01050000       0.53860000
    89  C          0.41561400       0.33925000       0.03217160
    90  C          0.58438600       0.83925000       0.46782840
    91  C          0.58438600       0.66075000       0.96782840
    92  C          0.41561400       0.16075000       0.53217160
    93  H          0.47030000       0.32640000       0.00620000
    94  H          0.52970000       0.82640000       0.49380000
    95  H          0.52970000       0.67360000       0.99380000
    96  H          0.47030000       0.17360000       0.50620000
    97  C         -0.00861400       0.19086000       0.10882180
    98  C          0.00861400       0.69086000       0.39117820
    99  C          0.00861400       0.80914000       0.89117820
   100  C         -0.00861400       0.30914000       0.60882180
   101  O         -0.02299000       0.09183000       0.09797110
   102  O          0.02299000       0.59183000       0.40202890
   103  O          0.02299000       0.90817000       0.90202890
   104  O         -0.02299000       0.40817000       0.59797110
   105  N          0.86338700       0.22534000       0.14080160
   106  N          0.13661300       0.72534000       0.35919840
   107  N          0.13661300       0.77466000       0.85919840
   108  N          0.86338700       0.27466000       0.64080160
   109  H          0.87285000       0.29150000       0.14861800
   110  H          0.12715000       0.79150000       0.35138200
   111  H          0.12715000       0.70850000       0.85138200
   112  H          0.87285000       0.20850000       0.64861800
   113  C          0.69488400       0.14775000       0.16375180
   114  C          0.30511600       0.64775000       0.33624820
   115  C          0.30511600       0.85225000       0.83624820
   116  C          0.69488400       0.35225000       0.66375180
   117  H          0.54540000       0.11170000       0.14780000
   118  H          0.45460000       0.61170000       0.35220000
   119  H          0.45460000       0.88830000       0.85220000
   120  H          0.54540000       0.38830000       0.64780000
   121  H          0.60410000       0.18920000       0.18390000
   122  H          0.39590000       0.68920000       0.31610000
   123  H          0.39590000       0.81080000       0.81610000
   124  H          0.60410000       0.31080000       0.68390000
   125  H          0.82360000       0.09070000       0.17480000
   126  H          0.17640000       0.59070000       0.32520000
   127  H          0.17640000       0.90930000       0.82520000
   128  H          0.82360000       0.40930000       0.67480000
   129  C          0.38951400       0.31005000       0.82962850
   130  C          0.61048600       0.81005000       0.67037150
   131  C          0.61048600       0.68995000       0.17037150
   132  C          0.38951400       0.18995000       0.32962850
   133  H          0.50220000       0.29350000       0.80750000
   134  H          0.49780000       0.79350000       0.69250000
   135  H          0.49780000       0.70650000       0.19250000
   136  H          0.50220000       0.20650000       0.30750000
   137  C          0.21471400       0.39995000       0.82688850
   138  C          0.78528600       0.89995000       0.67311150
   139  C          0.78528600       0.60005000       0.17311150
   140  C          0.21471400       0.10005000       0.32688850
   141  H          0.09980000       0.41660000       0.84880000
   142  H          0.90020000       0.91660000       0.65120000
   143  H          0.90020000       0.58340000       0.15120000
   144  H          0.09980000       0.08340000       0.34880000
   145  C          0.17821500       0.47695000       0.79375830
   146  C          0.82178500       0.97695000       0.70624170
   147  C          0.82178500       0.52305000       0.20624170
   148  C          0.17821500       0.02305000       0.29375830
   149  N          0.01611300       0.57035000       0.79970860
   150  N         -0.01611300       0.07035000       0.70029140
   151  N         -0.01611300       0.42965000       0.20029140
   152  N          0.01611300       0.92965000       0.29970860
   153  C         -0.02661800       0.64015000       0.76977000
   154  C          0.02661800       0.14015000       0.73023000
   155  C          0.02661800       0.35985000       0.23023000
   156  C         -0.02661800       0.85985000       0.26977000
   157  H          0.85820000       0.70740000       0.77360000
   158  H          0.14180000       0.20740000       0.72640000
   159  H          0.14180000       0.29260000       0.22640000
   160  H          0.85820000       0.79260000       0.27360000
   161  C          0.08051700       0.62336000       0.73428000
   162  C          0.91948300       0.12336000       0.76572000
   163  C          0.91948300       0.37664000       0.26572000
   164  C          0.08051700       0.87664000       0.23428000
   165  H          0.03550000       0.67580000       0.71380000
   166  H          0.96450000       0.17580000       0.78620000
   167  H          0.96450000       0.32420000       0.28620000
   168  H          0.03550000       0.82420000       0.21380000
   169  C          0.25251600       0.53077000       0.72830820
   170  C          0.74748400       0.03077000       0.77169180
   171  C          0.74748400       0.46923000       0.27169180
   172  C          0.25251600       0.96923000       0.22830820
   173  H          0.33810000       0.51750000       0.70390000
   174  H          0.66190000       0.01750000       0.79610000
   175  H          0.66190000       0.48250000       0.29610000
   176  H          0.33810000       0.98250000       0.20390000
   177  C          0.29961400       0.45615000       0.75878000
   178  C          0.70038600       0.95615000       0.74122000
   179  C          0.70038600       0.54385000       0.24122000
   180  C          0.29961400       0.04385000       0.25878000
   181  H          0.41790000       0.38940000       0.75550000
   182  H          0.58210000       0.88940000       0.74450000
   183  H          0.58210000       0.61060000       0.24450000
   184  H          0.41790000       0.11060000       0.25550000
