data_VUSDIX03
_symmetry_space_group_name_H-M    'P1'
_symmetry_Int_Tables_number       1
loop_
_symmetry_equiv_pos_site_id
_symmetry_equiv_pos_as_xyz
1 x,y,z
_cell_length_a                   8.14864
_cell_length_b                   10.73105
_cell_length_c                   12.68245
_cell_angle_alpha                68.1002
_cell_angle_beta                 88.3122
_cell_angle_gamma                70.6403
loop_
_atom_site_label
_atom_site_type_symbol
_atom_site_fract_x
_atom_site_fract_y
_atom_site_fract_z
     1  N          0.36615000       0.35244000       0.81773000
     2  N          0.63385000       0.64756000       0.18227000
     3  H          0.37260000       0.44150000       0.80640000
     4  H          0.62740000       0.55850000       0.19360000
     5  N          0.31765000       0.27575000       0.91843000
     6  N          0.68235000       0.72425000       0.08157000
     7  C          0.30016000       0.16316000       0.90593000
     8  C          0.69984000       0.83684000       0.09407000
     9  C          0.34106000       0.16346000       0.79513000
    10  C          0.65894000       0.83654000       0.20487000
    11  C          0.37976000       0.28746000       0.74164000
    12  C          0.62024000       0.71254000       0.25836000
    13  C          0.42645000       0.33065000       0.62903000
    14  C          0.57355000       0.66935000       0.37097000
    15  H          0.44830000       0.41580000       0.59400000
    16  H          0.55170000       0.58420000       0.40600000
    17  C          0.43786000       0.24066000       0.57413000
    18  C          0.56214000       0.75934000       0.42587000
    19  C          0.40346000       0.11156000       0.62824000
    20  C          0.59654000       0.88844000       0.37176000
    21  H          0.41530000       0.05120000       0.58940000
    22  H          0.58470000       0.94880000       0.41060000
    23  C          0.35276000       0.07325000       0.73734000
    24  C          0.64724000       0.92675000       0.26266000
    25  H          0.32700000       0.98960000       0.77120000
    26  H          0.67300000       0.01040000       0.22880000
    27  S          0.51391170       0.28409150       0.43660900
    28  S          0.48608830       0.71590850       0.56339100
    29  C          0.32556000       0.32305000       0.34563000
    30  C          0.67444000       0.67695000       0.65437000
    31  C          0.33886000       0.34554000       0.22873000
    32  C          0.66114000       0.65446000       0.77127000
    33  C          0.19016000       0.37625000       0.16004000
    34  C          0.80984000       0.62375000       0.83996000
    35  H          0.19790000       0.39170000       0.08310000
    36  H          0.80210000       0.60830000       0.91690000
    37  C          0.03196000       0.38445000       0.20234000
    38  C          0.96804000       0.61555000       0.79766000
    39  H          0.93370000       0.40490000       0.15480000
    40  H          0.06630000       0.59510000       0.84520000
    41  C          0.02026000       0.36185000       0.31574000
    42  C          0.97974000       0.63815000       0.68426000
    43  H          0.91310000       0.36730000       0.34480000
    44  H          0.08690000       0.63270000       0.65520000
    45  C          0.16386000       0.33145000       0.38663000
    46  C          0.83614000       0.66855000       0.61337000
    47  H          0.15300000       0.31620000       0.46320000
    48  H          0.84700000       0.68380000       0.53680000
    49  C          0.50907000       0.34295000       0.18004000
    50  C          0.49093000       0.65705000       0.81996000
    51  O          0.61704000       0.37603000       0.21992000
    52  O          0.38296000       0.62397000       0.78008000
    53  N          0.54045000       0.30334000       0.09063000
    54  N          0.45955000       0.69666000       0.90937000
    55  H          0.46460000       0.28850000       0.05740000
    56  H          0.53540000       0.71150000       0.94260000
    57  C          0.70056000       0.30055000       0.03743000
    58  C          0.29944000       0.69945000       0.96257000
    59  H          0.70080000       0.26970000       0.97530000
    60  H          0.29920000       0.73030000       0.02470000
    61  H          0.79900000       0.23520000       0.09270000
    62  H          0.20100000       0.76480000       0.90730000
    63  H          0.70780000       0.39470000       0.00880000
    64  H          0.29220000       0.60530000      -0.00880000
    65  C          0.25096000       0.05555000      -0.00326000
    66  C          0.74904000       0.94445000       0.00326000
    67  H          0.24620000       0.97850000       0.98130000
    68  H          0.75380000       0.02150000       0.01870000
    69  C          0.21176000       0.05475000       0.09943000
    70  C          0.78824000       0.94525000       0.90057000
    71  H          0.21170000       0.13310000       0.11460000
    72  H          0.78830000       0.86690000       0.88540000
    73  C          0.16916000       0.94334000       0.18994000
    74  C          0.83084000       0.05666000       0.81006000
    75  N          0.17385000       0.82785000       0.17063000
    76  N          0.82615000       0.17215000       0.82937000
    77  C          0.13957000       0.72504000       0.25404000
    78  C          0.86043000       0.27496000       0.74596000
    79  H          0.14220000       0.64490000       0.24060000
    80  H          0.85780000       0.35510000       0.75940000
    81  C          0.09997000       0.72753000       0.35974000
    82  C          0.90003000       0.27247000       0.64026000
    83  H          0.07920000       0.65080000       0.41620000
    84  H          0.92080000       0.34920000       0.58380000
    85  C          0.09207000       0.84583000       0.37884000
    86  C          0.90793000       0.15417000       0.62116000
    87  H          0.06360000       0.85240000       0.44850000
    88  H          0.93640000       0.14760000       0.55150000
    89  C          0.12667000       0.95604000       0.29334000
    90  C          0.87333000       0.04396000       0.70666000
    91  H          0.12160000       0.03800000       0.30460000
    92  H          0.87840000       0.96200000       0.69540000
