data_VUSDIX06
_symmetry_space_group_name_H-M    'P1'
_symmetry_Int_Tables_number       1
loop_
_symmetry_equiv_pos_site_id
_symmetry_equiv_pos_as_xyz
1 x,y,z
_cell_length_a                   7.74007
_cell_length_b                   11.88151
_cell_length_c                   12.151411
_cell_angle_alpha                65.6675
_cell_angle_beta                 72.6397
_cell_angle_gamma                76.1895
loop_
_atom_site_label
_atom_site_type_symbol
_atom_site_fract_x
_atom_site_fract_y
_atom_site_fract_z
     1  N          0.30838000       0.87905000       0.77166000
     2  N          0.69162000       0.12095000       0.22834000
     3  H          0.20210000       0.91460000       0.79270000
     4  H          0.79790000       0.08540000       0.20730000
     5  N          0.44378000       0.82795000       0.83576000
     6  N          0.55622000       0.17205000       0.16424000
     7  C          0.58681000       0.78326000       0.76068000
     8  C          0.41319000       0.21674000       0.23932000
     9  C          0.53501000       0.80236000       0.65087000
    10  C          0.46499000       0.19764000       0.34913000
    11  C          0.35499000       0.86346000       0.66068000
    12  C          0.64501000       0.13654000       0.33932000
    13  C          0.25801000       0.90206000       0.56917000
    14  C          0.74199000       0.09794000       0.43083000
    15  H          0.13910000       0.94510000       0.57870000
    16  H          0.86090000       0.05490000       0.42130000
    17  C          0.33991000       0.87556000       0.46437000
    18  C          0.66009000       0.12444000       0.53563000
    19  C          0.52191000       0.81206000       0.45108000
    20  C          0.47809000       0.18794000       0.54892000
    21  H          0.57910000       0.79470000       0.37870000
    22  H          0.42090000       0.20530000       0.62130000
    23  C          0.61511000       0.77576000       0.54488000
    24  C          0.38489000       0.22424000       0.45512000
    25  H          0.73400000       0.73240000       0.53580000
    26  H          0.26600000       0.26760000       0.46420000
    27  S          0.22903000       0.94565170       0.33982000
    28  S          0.77097000       0.05434830       0.66018000
    29  C          0.19929000       0.82086000       0.31077000
    30  C          0.80071000       0.17914000       0.68923000
    31  C          0.16959000       0.84216000       0.19468000
    32  C          0.83041000       0.15784000       0.80532000
    33  C          0.14421000       0.74417000       0.16848000
    34  C          0.85579000       0.25583000       0.83152000
    35  H          0.12950000       0.75910000       0.08920000
    36  H          0.87050000       0.24090000       0.91080000
    37  C          0.14061100       0.62637000       0.25669000
    38  C          0.85938900       0.37363000       0.74331000
    39  H          0.12280000       0.56120000       0.23790000
    40  H          0.87720000       0.43880000       0.76210000
    41  C          0.16351100       0.60277000       0.37469000
    42  C          0.83648900       0.39723000       0.62531000
    43  H          0.15870000       0.52240000       0.43620000
    44  H          0.84130000       0.47760000       0.56380000
    45  C          0.19331000       0.69957000       0.39898000
    46  C          0.80669000       0.30043000       0.60102000
    47  H          0.21030000       0.68320000       0.47780000
    48  H          0.78970000       0.31680000       0.52220000
    49  C          0.16709000       0.96895000       0.09907000
    50  C          0.83291000       0.03105000       0.90093000
    51  O          0.06077000       0.05934000       0.11855000
    52  O          0.93923000       0.94066000       0.88145000
    53  N          0.29048000       0.98715000      -0.00936000
    54  N          0.70952000       0.01285000       0.00936000
    55  H          0.36400000       0.92290000       0.97950000
    56  H          0.63600000       0.07710000       0.02050000
    57  C          0.30751100       0.10658000       0.89223000
    58  C          0.69248900       0.89342000       0.10777000
    59  H          0.40380000       0.09750000       0.82290000
    60  H          0.59620000       0.90250000       0.17710000
    61  H          0.33720000       0.16270000       0.92150000
    62  H          0.66280000       0.83730000       0.07850000
    63  H          0.19300000       0.14020000       0.86610000
    64  H          0.80700000       0.85980000       0.13390000
    65  C          0.75391000       0.72726000       0.80267000
    66  C          0.24609000       0.27274000       0.19733000
    67  H          0.75560000       0.72330000       0.88110000
    68  H          0.24440000       0.27670000       0.11890000
    69  C          0.90411000       0.68096000       0.74108000
    70  C          0.09589000       0.31904000       0.25892000
    71  H          0.90460000       0.68790000       0.66090000
    72  H          0.09540000       0.31210000       0.33910000
    73  C          0.07151000       0.61906000       0.78697000
    74  C          0.92849000       0.38094000       0.21303000
    75  N          0.18718000       0.55515000       0.71906000
    76  N          0.81282000       0.44485000       0.28094000
    77  C          0.34381100       0.49327000       0.75439000
    78  C          0.65618900       0.50673000       0.24561000
    79  H          0.42870000       0.45060000       0.70630000
    80  H          0.57130000       0.54940000       0.29370000
    81  C          0.38261100       0.49087000       0.86019000
    82  C          0.61738900       0.50913000       0.13981000
    83  H          0.48890000       0.44260000       0.88590000
    84  H          0.51110000       0.55740000       0.11410000
    85  C          0.26591100       0.55877000       0.92639000
    86  C          0.73408900       0.44123000       0.07361000
    87  H          0.29320000       0.56100000      -0.00440000
    88  H          0.70680000       0.43900000       0.00440000
    89  C          0.10861000       0.62307000       0.88958000
    90  C          0.89139000       0.37693000       0.11042000
    91  H          0.02570000       0.66990000       0.93390000
    92  H          0.97430000       0.33010000       0.06610000
