data_WACHEP
_symmetry_space_group_name_H-M    'P1'
_symmetry_Int_Tables_number       1
loop_
_symmetry_equiv_pos_site_id
_symmetry_equiv_pos_as_xyz
1 x,y,z
_cell_length_a                   5.05901
_cell_length_b                   17.1434
_cell_length_c                   15.3513
_cell_angle_alpha                90.0
_cell_angle_beta                 90.432
_cell_angle_gamma                90.0
loop_
_atom_site_label
_atom_site_type_symbol
_atom_site_fract_x
_atom_site_fract_y
_atom_site_fract_z
     1  C          0.96755000       0.27365160       0.83013170
     2  C          0.53245000       0.77365160       0.66986830
     3  C          0.03245000       0.72634840       0.16986830
     4  C          0.46755000       0.22634840       0.33013170
     5  C          0.76475000       0.22113180       0.84012000
     6  C          0.73525000       0.72113180       0.65988000
     7  C          0.23525000       0.77886820       0.15988000
     8  C          0.26475000       0.27886820       0.34012000
     9  H          0.65210000       0.20950000       0.79370000
    10  H          0.84790000       0.70950000       0.70630000
    11  H          0.34790000       0.79050000       0.20630000
    12  H          0.15210000       0.29050000       0.29370000
    13  C          0.73132000       0.18602000       0.92003000
    14  C          0.76868000       0.68602000       0.57997000
    15  C          0.26868000       0.81398000       0.07997000
    16  C          0.23132000       0.31398000       0.42003000
    17  H          0.59340000       0.15090000       0.92770000
    18  H          0.90660000       0.65090000       0.57230000
    19  H          0.40660000       0.84910000       0.07230000
    20  H          0.09340000       0.34910000       0.42770000
    21  C          0.89801000       0.20203000       0.98833000
    22  C          0.60199000       0.70203000       0.51167000
    23  C          0.10199000       0.79797000       0.01167000
    24  C          0.39801000       0.29797000       0.48833000
    25  H          0.87460000       0.17750000       0.04170000
    26  H          0.62540000       0.67750000       0.45830000
    27  H          0.12540000       0.82250000       0.95830000
    28  H          0.37460000       0.32250000       0.54170000
    29  C          0.09868000       0.25413000       0.97762000
    30  C          0.40132000       0.75413000       0.52238000
    31  C          0.90132000       0.74587000       0.02238000
    32  C          0.59868000       0.24587000       0.47762000
    33  H          0.21130000       0.26540000       0.02410000
    34  H          0.28870000       0.76540000       0.47590000
    35  H          0.78870000       0.73460000       0.97590000
    36  H          0.71130000       0.23460000       0.52410000
    37  C          0.13546000       0.29002000       0.89885190
    38  C          0.36454000       0.79002000       0.60114810
    39  C          0.86454000       0.70998000       0.10114810
    40  C          0.63546000       0.20998000       0.39885190
    41  H          0.27320000       0.32530000       0.89180000
    42  H          0.22680000       0.82530000       0.60820000
    43  H          0.72680000       0.67470000       0.10820000
    44  H          0.77320000       0.17470000       0.39180000
    45  C          0.95545000       0.46992170       0.76239190
    46  C          0.54455000       0.96992170       0.73760810
    47  C          0.04455000       0.53007830       0.23760810
    48  C          0.45545000       0.03007830       0.26239190
    49  C          0.87905000       0.49608170       0.84432000
    50  C          0.62095000      -0.00391830       0.65568000
    51  C          0.12095000       0.50391830       0.15568000
    52  C          0.37905000       0.00391830       0.34432000
    53  C         -0.02217000       0.56302000       0.88043000
    54  C          0.52217000       0.06302000       0.61957000
    55  C          0.02217000       0.43698000       0.11957000
    56  C          0.47783000       0.93698000       0.38043000
    57  H          0.92010000       0.57940000       0.93480000
    58  H          0.57990000       0.07940000       0.56520000
    59  H          0.07990000       0.42060000       0.06520000
    60  H          0.42010000       0.92060000       0.43480000
    61  C          0.16209000       0.60572000       0.83644000
    62  C          0.33791000       0.10572000       0.66356000
    63  C          0.83791000       0.39428000       0.16356000
    64  C          0.66209000       0.89428000       0.33644000
    65  H          0.23370000       0.65030000       0.86160000
    66  H          0.26630000       0.15030000       0.63840000
    67  H          0.76630000       0.34970000       0.13840000
    68  H          0.73370000       0.84970000       0.36160000
    69  C          0.24098000       0.58272000       0.75534000
    70  C          0.25902000       0.08272000       0.74466000
    71  C          0.75902000       0.41728000       0.24466000
    72  C          0.74098000       0.91728000       0.25534000
    73  H          0.36520000       0.61210000       0.72540000
    74  H          0.13480000       0.11210000       0.77460000
    75  H          0.63480000       0.38790000       0.27460000
    76  H          0.86520000       0.88790000       0.22540000
    77  C          0.13566000       0.51512000       0.71692000
    78  C          0.36434000       0.01512000       0.78308000
    79  C          0.86434000       0.48488000       0.28308000
    80  C          0.63566000       0.98488000       0.21692000
    81  N          0.85446000       0.40045130       0.72490140
    82  N          0.64554000       0.90045130       0.77509860
    83  N          0.14554000       0.59954870       0.27509860
    84  N          0.35446000       0.09954870       0.22490140
    85  H          0.69370000       0.39131500       0.72871700
    86  H          0.80630000       0.89131500       0.77128300
    87  H          0.30630000       0.60868500       0.27128300
    88  H          0.19370000       0.10868500       0.22871700
    89  O          0.29383000       0.33879110       0.72465120
    90  O          0.20617000       0.83879110       0.77534880
    91  O          0.70617000       0.66120890       0.27534880
    92  O          0.79383000       0.16120890       0.22465120
    93  O          0.90716000       0.26891120       0.66336120
    94  O          0.59284000       0.76891120       0.83663880
    95  O          0.09284000       0.73108880       0.33663880
    96  O          0.40716000       0.23108880       0.16336120
    97  Cl         0.64584830       0.44425500       0.90206600
    98  Cl         0.85415170       0.94425500       0.59793400
    99  Cl         0.35415170       0.55574500       0.09793400
   100  Cl         0.14584830       0.05574500       0.40206600
   101  Cl         0.22442000       0.49191600       0.61194700
   102  Cl         0.27558000      -0.00808400       0.88805300
   103  Cl         0.77558000       0.50808400       0.38805300
   104  Cl         0.72442000       0.00808400       0.11194700
   105  S          0.02094120       0.31832400       0.72850400
   106  S          0.47905880       0.81832400       0.77149600
   107  S         -0.02094120       0.68167600       0.27149600
   108  S          0.52094120       0.18167600       0.22850400
