data_WACHEP03
_symmetry_space_group_name_H-M    'P1'
_symmetry_Int_Tables_number       1
loop_
_symmetry_equiv_pos_site_id
_symmetry_equiv_pos_as_xyz
1 x,y,z
_cell_length_a                   9.44441
_cell_length_b                   12.234912
_cell_length_c                   12.334412
_cell_angle_alpha                90.0
_cell_angle_beta                 111.47101
_cell_angle_gamma                90.0
loop_
_atom_site_label
_atom_site_type_symbol
_atom_site_fract_x
_atom_site_fract_y
_atom_site_fract_z
     1  S          0.47587700       0.35186500       0.09788500
     2  S          0.52412300       0.85186500       0.40211500
     3  S          0.52412300       0.64813500       0.90211500
     4  S          0.47587700       0.14813500       0.59788500
     5  Cl         0.28982900       0.57641600       0.22693700
     6  Cl         0.71017100       0.07641600       0.27306300
     7  Cl         0.71017100       0.42358400       0.77306300
     8  Cl         0.28982900       0.92358400       0.72693700
     9  Cl         0.10312110       0.26101700       0.89983200
    10  Cl         0.89687890       0.76101700       0.60016800
    11  Cl         0.89687890       0.73898300       0.10016800
    12  Cl         0.10312110       0.23898300       0.39983200
    13  N          0.32272000       0.42727190       0.04223190
    14  N          0.67728000       0.92727190       0.45776810
    15  N          0.67728000       0.57272810       0.95776810
    16  N          0.32272000       0.07272810       0.54223190
    17  O          0.56322000       0.37352150       0.02663160
    18  O          0.43678000       0.87352150       0.47336840
    19  O          0.43678000       0.62647850       0.97336840
    20  O          0.56322000       0.12647850       0.52663160
    21  C          0.57763000       0.40102000       0.23922000
    22  C          0.42237000       0.90102000       0.26078000
    23  C          0.42237000       0.59898000       0.76078000
    24  C          0.57763000       0.09898000       0.73922000
    25  C          0.19463000       0.40902000       0.07412000
    26  C          0.80537000       0.90902000       0.42588000
    27  C          0.80537000       0.59098000       0.92588000
    28  C          0.19463000       0.09098000       0.57412000
    29  O          0.42772000       0.24316140       0.10735180
    30  O          0.57228000       0.74316140       0.39264820
    31  O          0.57228000       0.75683860       0.89264820
    32  O          0.42772000       0.25683860       0.60735180
    33  C          0.08813000       0.33022000       0.01682000
    34  C          0.91187000       0.83022000       0.48318000
    35  C          0.91187000       0.66978000       0.98318000
    36  C          0.08813000       0.16978000       0.51682000
    37  C          0.67163000       0.49072000       0.25362000
    38  C          0.32837000      -0.00928000       0.24638000
    39  C          0.32837000       0.50928000       0.74638000
    40  C          0.67163000       0.00928000       0.75362000
    41  H          0.68640000       0.52220000       0.18990000
    42  H          0.31360000       0.02220000       0.31010000
    43  H          0.31360000       0.47780000       0.81010000
    44  H          0.68640000       0.97780000       0.68990000
    45  C          0.16773000       0.47072000       0.16012000
    46  C          0.83227000       0.97072000       0.33988000
    47  C          0.83227000       0.52928000       0.83988000
    48  C          0.16773000       0.02928000       0.66012000
    49  C          0.55414000       0.35302000       0.33273000
    50  C          0.44586000       0.85302000       0.16727000
    51  C          0.44586000       0.64698000       0.66727000
    52  C          0.55414000       0.14698000       0.83273000
    53  H          0.49110000       0.29230000       0.32200000
    54  H          0.50890000       0.79230000       0.17800000
    55  H          0.50890000       0.70770000       0.67800000
    56  H          0.49110000       0.20770000       0.82200000
    57  C          0.04403000       0.45123000       0.19103000
    58  C          0.95597000       0.95123000       0.30897000
    59  C          0.95597000       0.54877000       0.80897000
    60  C          0.04403000       0.04877000       0.69103000
    61  H          0.02780000       0.49340000       0.24800000
    62  H          0.97220000      -0.00660000       0.25200000
    63  H          0.97220000       0.50660000       0.75200000
    64  H          0.02780000       0.00660000       0.74800000
    65  C          0.94557000       0.36953000       0.13733000
    66  C          0.05443000       0.86953000       0.36267000
    67  C          0.05443000       0.63047000       0.86267000
    68  C          0.94557000       0.13047000       0.63733000
    69  H          0.86440000       0.35430000       0.16050000
    70  H          0.13560000       0.85430000       0.33950000
    71  H          0.13560000       0.64570000       0.83950000
    72  H          0.86440000       0.14570000       0.66050000
    73  C          0.62604000       0.39693000       0.44223000
    74  C          0.37396000       0.89693000       0.05777000
    75  C          0.37396000       0.60307000       0.55777000
    76  C          0.62604000       0.10307000       0.94223000
    77  H          0.61120000       0.36590000       0.50600000
    78  H          0.38880000       0.86590000      -0.00600000
    79  H          0.38880000       0.63410000       0.49400000
    80  H          0.61120000       0.13410000       0.00600000
    81  C          0.74314000       0.53273000       0.36423000
    82  C          0.25686000       0.03273000       0.13577000
    83  C          0.25686000       0.46727000       0.63577000
    84  C          0.74314000       0.96727000       0.86423000
    85  H          0.80780000       0.59250000       0.37580000
    86  H          0.19220000       0.09250000       0.12420000
    87  H          0.19220000       0.40750000       0.62420000
    88  H          0.80780000       0.90750000       0.87580000
    89  C          0.71844000       0.48563000       0.45733000
    90  C          0.28156000       0.98563000       0.04267000
    91  C          0.28156000       0.51437000       0.54267000
    92  C          0.71844000       0.01437000       0.95733000
    93  H          0.76560000       0.51470000       0.53150000
    94  H          0.23440000       0.01470000       0.96850000
    95  H          0.23440000       0.48530000       0.46850000
    96  H          0.76560000       0.98530000       0.03150000
    97  C          0.96387000       0.30873000       0.04953000
    98  C          0.03613000       0.80873000       0.45047000
    99  C          0.03613000       0.69127000       0.95047000
   100  C          0.96387000       0.19127000       0.54953000
   101  H          0.89450000       0.25420000       0.01230000
   102  H          0.10550000       0.75420000       0.48770000
   103  H          0.10550000       0.74580000       0.98770000
   104  H          0.89450000       0.24580000       0.51230000
   105  H          0.34330000       0.48420000       0.03720000
   106  H          0.65670000       0.98420000       0.46280000
   107  H          0.65670000       0.51580000       0.96280000
   108  H          0.34330000       0.01580000       0.53720000
