data_WACHEP02
_symmetry_space_group_name_H-M    'P1'
_symmetry_Int_Tables_number       1
loop_
_symmetry_equiv_pos_site_id
_symmetry_equiv_pos_as_xyz
1 x,y,z
_cell_length_a                   5.03266
_cell_length_b                   14.431513
_cell_length_c                   18.1202
_cell_angle_alpha                90.0
_cell_angle_beta                 99.2511
_cell_angle_gamma                90.0
loop_
_atom_site_label
_atom_site_type_symbol
_atom_site_fract_x
_atom_site_fract_y
_atom_site_fract_z
     1  Cl         0.35518180       0.56220500       0.63918500
     2  Cl         0.64481820       0.06220500       0.86081500
     3  Cl         0.64481820       0.43779500       0.36081500
     4  Cl         0.35518180       0.93779500       0.13918500
     5  Cl         0.95439150       0.82166600       0.52479400
     6  Cl         0.04560850       0.32166600       0.97520600
     7  Cl         0.04560850       0.17833400       0.47520600
     8  Cl         0.95439150       0.67833400       0.02479400
     9  S          0.64110130       0.78200400       0.70811300
    10  S          0.35889870       0.28200400       0.79188700
    11  S          0.35889870       0.21799600       0.29188700
    12  S          0.64110130       0.71799600       0.20811300
    13  O          0.35693000       0.76865110       0.69285100
    14  O          0.64307000       0.26865110       0.80714900
    15  O          0.64307000       0.23134890       0.30714900
    16  O          0.35693000       0.73134890       0.19285100
    17  O          0.78764000       0.76343120       0.78033800
    18  O          0.21236000       0.26343120       0.71966200
    19  O          0.21236000       0.23656880       0.21966200
    20  O          0.78764000       0.73656880       0.28033800
    21  N          0.77084000       0.71389120       0.65069100
    22  N          0.22916000       0.21389120       0.84930900
    23  N          0.22916000       0.28610880       0.34930900
    24  N          0.77084000       0.78610880       0.15069100
    25  H          0.92160000       0.71660000       0.65830000
    26  H          0.07840000       0.21660000       0.84170000
    27  H          0.07840000       0.28340000       0.34170000
    28  H          0.92160000       0.78340000       0.15830000
    29  C          0.63725000       0.69414150       0.57747130
    30  C          0.36275000       0.19414150       0.92252870
    31  C          0.36275000       0.30585850       0.42252870
    32  C          0.63725000       0.80585850       0.07747130
    33  C          0.70405000       0.73831170       0.51434130
    34  C          0.29595000       0.23831170       0.98565870
    35  C          0.29595000       0.26168830       0.48565870
    36  C          0.70405000       0.76168830       0.01434130
    37  C          0.70795000       0.89779150       0.68592130
    38  C          0.29205000       0.39779150       0.81407870
    39  C          0.29205000       0.10220850       0.31407870
    40  C          0.70795000       0.60220850       0.18592130
    41  C          0.93096000       0.94244180       0.72275140
    42  C          0.06904000       0.44244180       0.77724860
    43  C          0.06904000       0.05755820       0.27724860
    44  C          0.93096000       0.55755820       0.22275140
    45  H          0.04850000       0.91180000       0.75960000
    46  H          0.95150000       0.41180000       0.74040000
    47  H          0.95150000       0.08820000       0.24040000
    48  H          0.04850000       0.58820000       0.25960000
    49  C          0.43945000       0.62561170       0.56488150
    50  C          0.56055000       0.12561170       0.93511850
    51  C          0.56055000       0.37438830       0.43511850
    52  C          0.43945000       0.87438830       0.06488150
    53  C          0.57847000       0.71712000       0.44292150
    54  C          0.42153000       0.21712000       0.05707850
    55  C          0.42153000       0.28288000       0.55707850
    56  C          0.57847000       0.78288000       0.94292150
    57  H          0.62750000       0.74710000       0.40170000
    58  H          0.37250000       0.24710000       0.09830000
    59  H          0.37250000       0.25290000       0.59830000
    60  H          0.62750000       0.75290000       0.90170000
    61  C          0.81097000       0.07849190       0.65143180
    62  C          0.18903000       0.57849190       0.84856820
    63  C          0.18903000       0.92150810       0.34856820
    64  C          0.81097000       0.42150810       0.15143180
    65  H          0.84470000       0.13980000       0.64020000
    66  H          0.15530000       0.63980000       0.85980000
    67  H          0.15530000       0.86020000       0.35980000
    68  H          0.84470000       0.36020000       0.14020000
    69  C          0.53496000       0.94342180       0.63155170
    70  C          0.46504000       0.44342180       0.86844830
    71  C          0.46504000       0.05657820       0.36844830
    72  C          0.53496000       0.55657820       0.13155170
    73  H          0.38200000       0.91380000       0.60680000
    74  H          0.61800000       0.41380000       0.89320000
    75  H          0.61800000       0.08620000       0.39320000
    76  H          0.38200000       0.58620000       0.10680000
    77  C          0.31157000       0.60542000       0.49422000
    78  C          0.68843000       0.10542000       0.00578000
    79  C          0.68843000       0.39458000       0.50578000
    80  C          0.31157000       0.89458000      -0.00578000
    81  H          0.17740000       0.56040000       0.48710000
    82  H          0.82260000       0.06040000       0.01290000
    83  H          0.82260000       0.43960000       0.51290000
    84  H          0.17740000       0.93960000       0.98710000
    85  C         -0.01974000       0.03342000       0.70478170
    86  C          0.01974000       0.53342000       0.79521830
    87  C          0.01974000       0.96658000       0.29521830
    88  C         -0.01974000       0.46658000       0.20478170
    89  H          0.13160000       0.06370000       0.72970000
    90  H          0.86840000       0.56370000       0.77030000
    91  H          0.86840000       0.93630000       0.27030000
    92  H          0.13160000       0.43630000       0.22970000
    93  C          0.38128000       0.65153000       0.43389190
    94  C          0.61872000       0.15153000       0.06610810
    95  C          0.61872000       0.34847000       0.56610810
    96  C          0.38128000       0.84847000       0.93389190
    97  H          0.29250000       0.63770000       0.38610000
    98  H          0.70750000       0.13770000       0.11390000
    99  H          0.70750000       0.36230000       0.61390000
   100  H          0.29250000       0.86230000       0.88610000
   101  C          0.59087000       0.03452000       0.61396190
   102  C          0.40913000       0.53452000       0.88603810
   103  C          0.40913000       0.96548000       0.38603810
   104  C          0.59087000       0.46548000       0.11396190
   105  H          0.47700000       0.06540000       0.57640000
   106  H          0.52300000       0.56540000       0.92360000
   107  H          0.52300000       0.93460000       0.42360000
   108  H          0.47700000       0.43460000       0.07640000
