data_WAJXEL
_symmetry_space_group_name_H-M    'P1'
_symmetry_Int_Tables_number       1
loop_
_symmetry_equiv_pos_site_id
_symmetry_equiv_pos_as_xyz
1 x,y,z
_cell_length_a                   12.62146
_cell_length_b                   6.29492
_cell_length_c                   9.39734
_cell_angle_alpha                90.0
_cell_angle_beta                 98.2542
_cell_angle_gamma                90.0
loop_
_atom_site_label
_atom_site_type_symbol
_atom_site_fract_x
_atom_site_fract_y
_atom_site_fract_z
     1  C          0.20469150       0.89347000       0.96658000
     2  C          0.79530850       0.39347000       0.53342000
     3  C          0.79530850       0.10653000       0.03342000
     4  C          0.20469150       0.60653000       0.46658000
     5  C          0.28746150       0.84867000       0.88918000
     6  C          0.71253850       0.34867000       0.61082000
     7  C          0.71253850       0.15133000       0.11082000
     8  C          0.28746150       0.65133000       0.38918000
     9  C          0.37112140      -0.01243000       0.87968810
    10  C          0.62887860       0.48757000       0.62031190
    11  C          0.62887860       0.01243000       0.12031190
    12  C          0.37112140       0.51243000       0.37968810
    13  C          0.37121150       0.18273000       0.94468000
    14  C          0.62878850       0.68273000       0.55532000
    15  C          0.62878850       0.81727000       0.05532000
    16  C          0.37121150       0.31727000       0.44468000
    17  C          0.28903150       0.23693000       0.01972000
    18  C          0.71096850       0.73693000       0.48028000
    19  C          0.71096850       0.76307000       0.98028000
    20  C          0.28903150       0.26307000       0.51972000
    21  C          0.20904150       0.09253000       0.03115190
    22  C          0.79095850       0.59253000       0.46884810
    23  C          0.79095850       0.90747000       0.96884810
    24  C          0.20904150       0.40747000       0.53115190
    25  B          0.11484170       0.72527000       0.98498000
    26  B          0.88515830       0.22527000       0.51502000
    27  B          0.88515830       0.27473000       0.01502000
    28  B          0.11484170       0.77473000       0.48498000
    29  O          0.07353110       0.59268000       0.87651840
    30  O          0.92646890       0.09268000       0.62348160
    31  O          0.92646890       0.40732000       0.12348160
    32  O          0.07353110       0.90732000       0.37651840
    33  O          0.07956110       0.71198000       0.11424130
    34  O          0.92043890       0.21198000       0.38575870
    35  O          0.92043890       0.28802000       0.88575870
    36  O          0.07956110       0.78802000       0.61424130
    37  F          0.29011900       0.66099840       0.82048880
    38  F          0.70988100       0.16099840       0.67951120
    39  F          0.70988100       0.33900160       0.17951120
    40  F          0.29011900       0.83900160       0.32048880
    41  F          0.45090900       0.93422820       0.80640870
    42  F          0.54909100       0.43422820       0.69359130
    43  F          0.54909100       0.06577180       0.19359130
    44  F          0.45090900       0.56577180       0.30640870
    45  F          0.45065100       0.31949180       0.93538870
    46  F          0.54934900       0.81949180       0.56461130
    47  F          0.54934900       0.68050820       0.06461130
    48  F          0.45065100       0.18050820       0.43538870
    49  F          0.28823100       0.42794160       0.08323120
    50  F          0.71176900       0.92794160       0.41676880
    51  F          0.71176900       0.57205840       0.91676880
    52  F          0.28823100       0.07205840       0.58323120
    53  F          0.13194900       0.15083170       0.10926120
    54  F          0.86805100       0.65083170       0.39073880
    55  F          0.86805100       0.84916830       0.89073880
    56  F          0.13194900       0.34916830       0.60926120
    57  H          0.08620000       0.62560000       0.79570000
    58  H          0.91380000       0.12560000       0.70430000
    59  H          0.91380000       0.37440000       0.20430000
    60  H          0.08620000       0.87440000       0.29570000
    61  H          0.02920000       0.60560000       0.11530000
    62  H          0.97080000       0.10560000       0.38470000
    63  H          0.97080000       0.39440000       0.88470000
    64  H          0.02920000       0.89440000       0.61530000
