data_WAJXEL02
_symmetry_space_group_name_H-M    'P1'
_symmetry_Int_Tables_number       1
loop_
_symmetry_equiv_pos_site_id
_symmetry_equiv_pos_as_xyz
1 x,y,z
_cell_length_a                   14.1332
_cell_length_b                   5.05901
_cell_length_c                   11.35901
_cell_angle_alpha                90.0
_cell_angle_beta                 112.6001
_cell_angle_gamma                90.0
loop_
_atom_site_label
_atom_site_type_symbol
_atom_site_fract_x
_atom_site_fract_y
_atom_site_fract_z
     1  B          0.61493000       0.49306000       0.42843000
     2  B          0.38507000      -0.00694000       0.07157000
     3  B          0.38507000       0.50694000       0.57157000
     4  B          0.61493000       0.00694000       0.92843000
     5  O          0.58254170       0.72774000       0.45652000
     6  O          0.41745830       0.22774000       0.04348000
     7  O          0.41745830       0.27226000       0.54348000
     8  O          0.58254170       0.77226000       0.95652000
     9  H          0.53751400       0.70168000       0.48529600
    10  H          0.46248600       0.20168000       0.01470400
    11  H          0.46248600       0.29832000       0.51470400
    12  H          0.53751400       0.79832000       0.98529600
    13  O          0.56888170       0.26954000       0.44622000
    14  O          0.43111830       0.76954000       0.05378000
    15  O          0.43111830       0.73046000       0.55378000
    16  O          0.56888170       0.23046000       0.94622000
    17  H          0.59922800       0.13831500       0.43408400
    18  H          0.40077200       0.63831500       0.06591600
    19  H          0.40077200       0.86168500       0.56591600
    20  H          0.59922800       0.36168500       0.93408400
    21  C          0.70442000       0.47945000       0.37913000
    22  C          0.29558000      -0.02055000       0.12087000
    23  C          0.29558000       0.52055000       0.62087000
    24  C          0.70442000       0.02055000       0.87913000
    25  C          0.78702000       0.65255000       0.42083000
    26  C          0.21298000       0.15255000       0.07917000
    27  C          0.21298000       0.34745000       0.57917000
    28  C          0.78702000       0.84745000       0.92083000
    29  F          0.78959140       0.84843000       0.50229170
    30  F          0.21040860       0.34843000      -0.00229170
    31  F          0.21040860       0.15157000       0.49770830
    32  F          0.78959140       0.65157000       0.00229170
    33  C          0.86912000       0.63256000       0.38463000
    34  C          0.13088000       0.13256000       0.11537000
    35  C          0.13088000       0.36744000       0.61537000
    36  C          0.86912000       0.86744000       0.88463000
    37  F          0.94756140       0.80244000       0.42972000
    38  F          0.05243860       0.30244000       0.07028000
    39  F          0.05243860       0.19756000       0.57028000
    40  F          0.94756140       0.69756000       0.92972000
    41  C          0.87042000       0.43856000       0.30213000
    42  C          0.12958000       0.93856000       0.19787000
    43  C          0.12958000       0.56144000       0.69787000
    44  C          0.87042000       0.06144000       0.80213000
    45  F          0.95011150       0.41724000       0.26662000
    46  F          0.04988850       0.91724000       0.23338000
    47  F          0.04988850       0.58276000       0.73338000
    48  F          0.95011150       0.08276000       0.76662000
    49  C          0.79072000       0.26475000       0.25663000
    50  C          0.20928000       0.76475000       0.24337000
    51  C          0.20928000       0.73525000       0.74337000
    52  C          0.79072000       0.23525000       0.75663000
    53  F          0.79201150       0.07124000       0.17571180
    54  F          0.20798850       0.57124000       0.32428820
    55  F          0.20798850       0.92876000       0.82428820
    56  F          0.79201150       0.42876000       0.67571180
    57  C          0.71062000       0.28635000       0.29583000
    58  C          0.28938000       0.78635000       0.20417000
    59  C          0.28938000       0.71365000       0.70417000
    60  C          0.71062000       0.21365000       0.79583000
    61  F          0.63484130       0.10463000       0.25053170
    62  F          0.36515870       0.60463000       0.24946830
    63  F          0.36515870       0.89537000       0.74946830
    64  F          0.63484130       0.39537000       0.75053170
