data_WAJXEL01
_symmetry_space_group_name_H-M    'P1'
_symmetry_Int_Tables_number       1
loop_
_symmetry_equiv_pos_site_id
_symmetry_equiv_pos_as_xyz
1 x,y,z
_cell_length_a                   7.454713
_cell_length_b                   5.00707
_cell_length_c                   10.054717
_cell_angle_alpha                90.0
_cell_angle_beta                 96.7846
_cell_angle_gamma                90.0
loop_
_atom_site_label
_atom_site_type_symbol
_atom_site_fract_x
_atom_site_fract_y
_atom_site_fract_z
     1  F          0.95203000       0.94534000       0.40325190
     2  F          0.04797000       0.44534000       0.59674810
     3  F          0.82003000       0.17324000       0.02682000
     4  F          0.17997000       0.67324000       0.97318000
     5  F          0.55643000       0.52135000       0.07513000
     6  F          0.44357000       0.02135000       0.92487000
     7  F          0.14673000       0.20384000       0.16802000
     8  F          0.85327000       0.70384000       0.83198000
     9  O          0.31383000       0.83144000       0.42673000
    10  O          0.68617000       0.33144000       0.57327000
    11  O          0.36283000       0.37465000       0.40673000
    12  O          0.63717000       0.87465000       0.59327000
    13  C          0.75584000       0.73306000       0.24093000
    14  C          0.24416000       0.23306000       0.75907000
    15  F          0.62603000       0.91065000       0.26252000
    16  F          0.37397000       0.41065000       0.73748000
    17  C          0.92554000       0.74906000       0.31273000
    18  C          0.07446000       0.24906000       0.68727000
    19  C          0.72044000       0.53827000       0.14493000
    20  C          0.27956000       0.03827000       0.85507000
    21  C          0.85264000       0.36226000       0.12193000
    22  C          0.14736000       0.86226000       0.87807000
    23  C          0.02054000       0.38145000       0.19573000
    24  C         -0.02054000       0.88145000       0.80427000
    25  C          0.06314000       0.57455000       0.29333000
    26  C          0.93686000       0.07455000       0.70667000
    27  B          0.25624000       0.59107000       0.37923000
    28  B          0.74376000       0.09107000       0.62077000
    29  H          0.42150000       0.83280000       0.47340000
    30  H          0.57850000       0.33280000       0.52660000
    31  H          0.32060000       0.23311000       0.38740000
    32  H          0.67940000       0.73311000       0.61260000
