data_WAMFAS
_symmetry_space_group_name_H-M    'P1'
_symmetry_Int_Tables_number       1
loop_
_symmetry_equiv_pos_site_id
_symmetry_equiv_pos_as_xyz
1 x,y,z
_cell_length_a                   7.49622
_cell_length_b                   14.70654
_cell_length_c                   19.21314
_cell_angle_alpha                90.0
_cell_angle_beta                 93.0912
_cell_angle_gamma                90.0
loop_
_atom_site_label
_atom_site_type_symbol
_atom_site_fract_x
_atom_site_fract_y
_atom_site_fract_z
     1  N          0.22280180       0.38403900       0.02427800
     2  N          0.27719820       0.88403900       0.47572200
     3  N          0.77719820       0.61596100       0.97572200
     4  N          0.72280180       0.11596100       0.52427800
     5  O          0.24577170       0.65514800       0.97305300
     6  O          0.25422830       0.15514800       0.52694700
     7  O          0.75422830       0.34485200       0.02694700
     8  O          0.74577170       0.84485200       0.47305300
     9  C          0.24522000       0.57299110       0.98708100
    10  C          0.25478000       0.07299110       0.51291900
    11  C          0.75478000       0.42700890       0.01291900
    12  C          0.74522000       0.92700890       0.48708100
    13  C          0.17542000       0.50408110       0.93820100
    14  C          0.32458000       0.00408110       0.56179900
    15  C          0.82458000       0.49591890       0.06179900
    16  C          0.67542000      -0.00408110       0.43820100
    17  C          0.11592000       0.53027130       0.87024900
    18  C          0.38408000       0.03027130       0.62975100
    19  C          0.88408000       0.46972870       0.12975100
    20  C          0.61592000       0.96972870       0.37024900
    21  H          0.12060000       0.59130000       0.85780000
    22  H          0.37940000       0.09130000       0.64220000
    23  H          0.87940000       0.40870000       0.14220000
    24  H          0.62060000       0.90870000       0.35780000
    25  C          0.05122000       0.46790130       0.82208900
    26  C          0.44878000       0.96790130       0.67791100
    27  C          0.94878000       0.53209870       0.17791100
    28  C          0.55122000       0.03209870       0.32208900
    29  H          0.01240000       0.48630000       0.77750000
    30  H          0.48760000       0.98630000       0.72250000
    31  H         -0.01240000       0.51370000       0.22250000
    32  H          0.51240000       0.01370000       0.27750000
    33  C          0.04452000       0.37646130       0.84117900
    34  C          0.45548000       0.87646130       0.65882100
    35  C          0.95548000       0.62353870       0.15882100
    36  C          0.54452000       0.12353870       0.34117900
    37  H          0.00190000       0.33370000       0.80870000
    38  H          0.49810000       0.83370000       0.69130000
    39  H         -0.00190000       0.66630000       0.19130000
    40  H          0.50190000       0.16630000       0.30870000
    41  C          0.10002000       0.34832120       0.90729900
    42  C          0.39998000       0.84832120       0.59270100
    43  C          0.89998000       0.65167880       0.09270100
    44  C          0.60002000       0.15167880       0.40729900
    45  H          0.09370000       0.28710000       0.91890000
    46  H          0.40630000       0.78710000       0.58110000
    47  H          0.90630000       0.71290000       0.08110000
    48  H          0.59370000       0.21290000       0.41890000
    49  C          0.16632000       0.41178110       0.95765100
    50  C          0.33368000       0.91178110       0.54234900
    51  C          0.83368000       0.58821890       0.04234900
    52  C          0.66632000       0.08821890       0.45765100
    53  C          0.30852000       0.44438110       0.07081900
    54  C          0.19148000       0.94438110       0.42918100
    55  C          0.69148000       0.55561890       0.92918100
    56  C          0.80852000       0.05561890       0.57081900
    57  C          0.31792000       0.53805110       0.05480900
    58  C          0.18208000       0.03805110       0.44519100
    59  C          0.68208000       0.46194890       0.94519100
    60  C          0.81792000       0.96194890       0.55480900
    61  C          0.39472000       0.59884110       0.10307900
    62  C          0.10528000       0.09884110       0.39692100
    63  C          0.60528000       0.40115890       0.89692100
    64  C          0.89472000       0.90115890       0.60307900
    65  H          0.39760000       0.66030000       0.09170000
    66  H          0.10240000       0.16030000       0.40830000
    67  H          0.60240000       0.33970000       0.90830000
    68  H          0.89760000       0.83970000       0.59170000
    69  C          0.18882000       0.29063110       0.04758900
    70  C          0.31118000       0.79063110       0.45241100
    71  C          0.81118000       0.70936890       0.95241100
    72  C          0.68882000       0.20936890       0.54758900
    73  H          0.07880000       0.26880000       0.02450000
    74  H          0.42120000       0.76880000       0.47550000
    75  H          0.92120000       0.73120000       0.97550000
    76  H          0.57880000       0.23120000       0.52450000
    77  H          0.17270000       0.29110000       0.09730000
    78  H          0.32730000       0.79110000       0.40270000
    79  H          0.82730000       0.70890000       0.90270000
    80  H          0.67270000       0.20890000       0.59730000
    81  C          0.33962000       0.22528120       0.03250100
    82  C          0.16038000       0.72528120       0.46749900
    83  C          0.66038000       0.77471880       0.96749900
    84  C          0.83962000       0.27471880       0.53250100
    85  H          0.45240000       0.25140000       0.04970000
    86  H          0.04760000       0.75140000       0.45030000
    87  H          0.54760000       0.74860000       0.95030000
    88  H          0.95240000       0.24860000       0.54970000
    89  H          0.34410000       0.21760000       0.98250000
    90  H          0.15590000       0.71760000       0.51750000
    91  H          0.65590000       0.78240000       0.01750000
    92  H          0.84410000       0.28240000       0.48250000
    93  C          0.31643000       0.13244120       0.06618110
    94  C          0.18357000       0.63244120       0.43381890
    95  C          0.68357000       0.86755880       0.93381890
    96  C          0.81643000       0.36755880       0.56618110
    97  H          0.19770000       0.10980000       0.05320000
    98  H          0.30230000       0.60980000       0.44680000
    99  H          0.80230000       0.89020000       0.94680000
   100  H          0.69770000       0.39020000       0.55320000
   101  H          0.40190000       0.09050000       0.04780000
   102  H          0.09810000       0.59050000       0.45220000
   103  H          0.59810000       0.90950000       0.95220000
   104  H          0.90190000       0.40950000       0.54780000
   105  C          0.34153000       0.13363140       0.14519120
   106  C          0.15847000       0.63363140       0.35480880
   107  C          0.65847000       0.86636860       0.85480880
   108  C          0.84153000       0.36636860       0.64519120
   109  H          0.32540000       0.07330000       0.16300000
   110  H          0.17460000       0.57330000       0.33700000
   111  H          0.67460000       0.92670000       0.83700000
   112  H          0.82540000       0.42670000       0.66300000
   113  H          0.25530000       0.17370000       0.16400000
   114  H          0.24470000       0.67370000       0.33600000
   115  H          0.74470000       0.82630000       0.83600000
   116  H          0.75530000       0.32630000       0.66400000
   117  H          0.45980000       0.15460000       0.15850000
   118  H          0.04020000       0.65460000       0.34150000
   119  H          0.54020000       0.84540000       0.84150000
   120  H          0.95980000       0.34540000       0.65850000
   121  N          0.54330180       0.63176900       0.21684800
   122  N          0.95669820       0.13176900       0.28315200
   123  N          0.45669820       0.36823100       0.78315200
   124  N          0.04330180       0.86823100       0.71684800
   125  O          0.55958180       0.35813800       0.26014700
   126  O          0.94041820       0.85813800       0.23985300
   127  O          0.44041820       0.64186200       0.73985300
   128  O          0.05958180       0.14186200       0.76014700
   129  C          0.54422000       0.44057110       0.24878900
   130  C          0.95578000       0.94057110       0.25121100
   131  C          0.45578000       0.55942890       0.75121100
   132  C          0.04422000       0.05942890       0.74878900
   133  C          0.59742000       0.50944120       0.30053900
   134  C          0.90258000       0.00944120       0.19946100
   135  C          0.40258000       0.49055880       0.69946100
   136  C          0.09742000      -0.00944120       0.80053900
   137  C          0.64992000       0.48188130       0.36908100
   138  C          0.85008000       0.98188130       0.13091900
   139  C          0.35008000       0.51811870       0.63091900
   140  C          0.14992000       0.01811870       0.86908100
   141  H          0.65190000       0.42030000       0.38000000
   142  H          0.84810000       0.92030000       0.12000000
   143  H          0.34810000       0.57970000       0.62000000
   144  H          0.15190000       0.07970000       0.88000000
   145  C          0.69783000       0.54413140       0.41985100
   146  C          0.80217000       0.04413140       0.08014900
   147  C          0.30217000       0.45586860       0.58014900
   148  C          0.19783000       0.95586860       0.91985100
   149  H          0.73000000       0.52510000       0.46490000
   150  H          0.77000000       0.02510000       0.03510000
   151  H          0.27000000       0.47490000       0.53510000
   152  H          0.23000000       0.97490000       0.96490000
   153  C          0.69772000       0.63649130       0.40299100
   154  C          0.80228000       0.13649130       0.09700900
   155  C          0.30228000       0.36350870       0.59700900
   156  C          0.19772000       0.86350870       0.90299100
   157  H          0.73000000       0.67900000       0.43720000
   158  H          0.77000000       0.17900000       0.06280000
   159  H          0.27000000       0.32100000       0.56280000
   160  H          0.23000000       0.82100000       0.93720000
   161  C          0.65072000       0.66554120       0.33650100
   162  C          0.84928000       0.16554120       0.16349900
   163  C          0.34928000       0.33445880       0.66349900
   164  C          0.15072000       0.83445880       0.83650100
   165  H          0.65420000       0.72730000       0.32620000
   166  H          0.84580000       0.22730000       0.17380000
   167  H          0.34580000       0.27270000       0.67380000
   168  H          0.15420000       0.77270000       0.82620000
   169  C          0.59692000       0.60291110       0.28342900
   170  C          0.90308000       0.10291110       0.21657100
   171  C          0.40308000       0.39708890       0.71657100
   172  C          0.09692000       0.89708890       0.78342900
   173  C          0.46752000       0.57098110       0.16777900
   174  C          0.03248000       0.07098110       0.33222100
   175  C          0.53248000       0.42901890       0.83222100
   176  C          0.96752000       0.92901890       0.66777900
   177  C          0.46442000       0.47651110       0.18267900
   178  C          0.03558000       0.97651110       0.31732100
   179  C          0.53558000       0.52348890       0.81732100
   180  C          0.96442000       0.02348890       0.68267900
   181  C          0.38622000       0.41557110       0.13470900
   182  C          0.11378000       0.91557110       0.36529100
   183  C          0.61378000       0.58442890       0.86529100
   184  C          0.88622000       0.08442890       0.63470900
   185  H          0.38570000       0.35390000       0.14550000
   186  H          0.11430000       0.85390000       0.35450000
   187  H          0.61430000       0.64610000       0.85450000
   188  H          0.88570000       0.14610000       0.64550000
   189  C          0.55612000       0.72853110       0.19775900
   190  C          0.94388000       0.22853110       0.30224100
   191  C          0.44388000       0.27146890       0.80224100
   192  C          0.05612000       0.77146890       0.69775900
   193  H          0.57170000       0.73310000       0.14810000
   194  H          0.92830000       0.23310000       0.35190000
   195  H          0.42830000       0.26690000       0.85190000
   196  H          0.07170000       0.76690000       0.64810000
   197  H          0.66110000       0.75450000       0.22180000
   198  H          0.83890000       0.25450000       0.27820000
   199  H          0.33890000       0.24550000       0.77820000
   200  H          0.16110000       0.74550000       0.72180000
   201  C          0.39232000       0.78391120       0.21555900
   202  C          0.10768000       0.28391120       0.28444100
   203  C          0.60768000       0.21608880       0.78444100
   204  C          0.89232000       0.71608880       0.71555900
   205  H          0.28530000       0.74940000       0.20270000
   206  H          0.21470000       0.24940000       0.29730000
   207  H          0.71470000       0.25060000       0.79730000
   208  H          0.78530000       0.75060000       0.70270000
   209  H          0.39520000       0.79410000       0.26550000
   210  H          0.10480000       0.29410000       0.23450000
   211  H          0.60480000       0.20590000       0.73450000
   212  H          0.89520000       0.70590000       0.76550000
   213  C          0.38383000       0.87522120       0.17828100
   214  C          0.11617000       0.37522120       0.32171900
   215  C          0.61617000       0.12477880       0.82171900
   216  C          0.88383000       0.62477880       0.67828100
   217  H          0.30680000       0.91570000       0.20290000
   218  H          0.19320000       0.41570000       0.29710000
   219  H          0.69320000       0.08430000       0.79710000
   220  H          0.80680000       0.58430000       0.70290000
   221  H          0.50240000       0.90180000       0.18010000
   222  H         -0.00240000       0.40180000       0.31990000
   223  H          0.49760000       0.09820000       0.81990000
   224  H          0.00240000       0.59820000       0.68010000
   225  C          0.31474000       0.86887160       0.10271120
   226  C          0.18526000       0.36887160       0.39728880
   227  C          0.68526000       0.13112840       0.89728880
   228  C          0.81474000       0.63112840       0.60271120
   229  H          0.31270000       0.92840000       0.08220000
   230  H          0.18730000       0.42840000       0.41780000
   231  H          0.68730000       0.07160000       0.91780000
   232  H          0.81270000       0.57160000       0.58220000
   233  H          0.19600000       0.84420000       0.10050000
   234  H          0.30400000       0.34420000       0.39950000
   235  H          0.80400000       0.15580000       0.89950000
   236  H          0.69600000       0.65580000       0.60050000
   237  H          0.39170000       0.83000000       0.07760000
   238  H          0.10830000       0.33000000       0.42240000
   239  H          0.60830000       0.17000000       0.92240000
   240  H          0.89170000       0.67000000       0.57760000
