data_WAMFAS04
_symmetry_space_group_name_H-M    'P1'
_symmetry_Int_Tables_number       1
loop_
_symmetry_equiv_pos_site_id
_symmetry_equiv_pos_as_xyz
1 x,y,z
_cell_length_a                   7.193814
_cell_length_b                   10.3372
_cell_length_c                   15.0223
_cell_angle_alpha                94.673
_cell_angle_beta                 90.583
_cell_angle_gamma                101.873
loop_
_atom_site_label
_atom_site_type_symbol
_atom_site_fract_x
_atom_site_fract_y
_atom_site_fract_z
     1  C          0.12575000       0.91693000       0.96962000
     2  C          0.87425000       0.08307000       0.03038000
     3  C          0.14395000       0.98243000       0.05632000
     4  C          0.85605000       0.01757000       0.94368000
     5  C          0.02095000       0.06233000       0.08552000
     6  C         -0.02095000       0.93767000       0.91448000
     7  H          0.03610000       0.10320000       0.14330000
     8  H          0.96390000       0.89680000       0.85670000
     9  C          0.29935000       0.97093000       0.11752000
    10  C          0.70065000       0.02907000       0.88248000
    11  C          0.41695000       0.87943000       0.08602000
    12  C          0.58305000       0.12057000       0.91398000
    13  C          0.56075000       0.85684000       0.14242000
    14  C          0.43925000       0.14316000       0.85758000
    15  H          0.57770000       0.90050000       0.19950000
    16  H          0.42230000       0.09950000       0.80050000
    17  C          0.67756000       0.77204000       0.11613000
    18  C          0.32244000       0.22796000       0.88387000
    19  H          0.77310000       0.75840000       0.15420000
    20  H          0.22690000       0.24160000       0.84580000
    21  C          0.64905000       0.70724000       0.03132000
    22  C          0.35095000       0.29276000       0.96868000
    23  H          0.72740000       0.64940000       0.01290000
    24  H          0.27260000       0.35060000       0.98710000
    25  C          0.50995000       0.72484000       0.97352000
    26  C          0.49005000       0.27516000       0.02648000
    27  H          0.49350000       0.67840000       0.91730000
    28  H          0.50650000       0.32160000       0.08270000
    29  C          0.39155000       0.81353000      -0.00058000
    30  C          0.60845000       0.18647000       0.00058000
    31  C          0.23705000       0.78073000       0.84702000
    32  C          0.76295000       0.21927000       0.15298000
    33  H          0.35770000       0.75880000       0.83070000
    34  H          0.64230000       0.24120000       0.16930000
    35  H          0.21430000       0.84810000       0.80940000
    36  H          0.78570000       0.15190000       0.19060000
    37  C          0.07817000       0.65574000       0.82813000
    38  C          0.92183000       0.34426000       0.17187000
    39  H          0.95750000       0.68050000       0.84080000
    40  H          0.04250000       0.31950000       0.15920000
    41  H          0.07660000       0.62820000       0.76480000
    42  H          0.92340000       0.37180000       0.23520000
    43  C          0.08897000       0.54144000       0.87713000
    44  C          0.91103000       0.45856000       0.12287000
    45  H          0.09970000       0.56890000       0.94050000
    46  H          0.90030000       0.43110000       0.05950000
    47  H          0.20280000       0.50990000       0.86040000
    48  H          0.79720000       0.49010000       0.13960000
    49  C          0.91633000       0.42744000       0.85943000
    50  C          0.08367000       0.57256000       0.14057000
    51  H          0.80270000       0.45850000       0.87420000
    52  H          0.19730000       0.54150000       0.12580000
    53  H          0.92790000       0.35680000       0.89560000
    54  H          0.07210000       0.64320000       0.10440000
    55  H          0.91030000       0.39520000       0.79750000
    56  H          0.08970000       0.60480000       0.20250000
    57  N          0.25044000       0.83583000       0.94078160
    58  N          0.74956000       0.16417000       0.05921840
    59  O          0.32704000       0.03513000       0.19155150
    60  O          0.67296000       0.96487000       0.80844850
    61  C          0.11515000       0.19053000       0.51882000
    62  C          0.88485000       0.80947000       0.48118000
    63  C          0.00245000       0.28454000       0.50452000
    64  C         -0.00245000       0.71546000       0.49548000
    65  H          0.02380000       0.33440000       0.45540000
    66  H         -0.02380000       0.66560000       0.54460000
    67  C          0.86334000       0.30264000       0.56183000
    68  C          0.13666000       0.69736000       0.43817000
    69  H          0.79220000       0.36580000       0.55150000
    70  H          0.20780000       0.63420000       0.44850000
    71  C          0.82474000       0.22914000       0.63553000
    72  C          0.17526000       0.77086000       0.36447000
    73  H          0.72640000       0.24050000       0.67310000
    74  H          0.27360000       0.75950000       0.32690000
    75  C          0.93355000       0.14054000       0.65142000
    76  C          0.06645000       0.85946000       0.34858000
    77  H          0.91060000       0.09270000       0.70140000
    78  H          0.08940000       0.90730000       0.29860000
    79  C          0.08035000       0.11863000       0.59462000
    80  C          0.91965000       0.88137000       0.40538000
    81  C          0.19295000       0.02293000       0.61522000
    82  C          0.80705000       0.97707000       0.38478000
    83  C          0.35085000       0.01333000       0.55562000
    84  C          0.64915000      -0.01333000       0.44438000
    85  C          0.37675000       0.08563000       0.47962000
    86  C          0.62325000       0.91437000       0.52038000
    87  C          0.52705000       0.06873000       0.42472000
    88  C          0.47295000       0.93127000       0.57528000
    89  H          0.54560000       0.11390000       0.37340000
    90  H          0.45440000       0.88610000       0.62660000
    91  C          0.27885000       0.23573000       0.37682000
    92  C          0.72115000       0.76427000       0.62318000
    93  H          0.15720000       0.25110000       0.35690000
    94  H          0.84280000       0.74890000       0.64310000
    95  H          0.32270000       0.17880000       0.33070000
    96  H          0.67730000       0.82120000       0.66930000
    97  C          0.42075000       0.36784000       0.38962000
    98  C          0.57925000       0.63216000       0.61038000
    99  H          0.38380000       0.42030000       0.44020000
   100  H          0.61620000       0.57970000       0.55980000
   101  H          0.54500000       0.35090000       0.40370000
   102  H          0.45500000       0.64910000       0.59630000
   103  C          0.43536000       0.44654000       0.30962000
   104  C          0.56464000       0.55346000       0.69038000
   105  H          0.31230000       0.46630000       0.29670000
   106  H          0.68770000       0.53370000       0.70330000
   107  H          0.46870000       0.39320000       0.25840000
   108  H          0.53130000       0.60680000       0.74160000
   109  C          0.58187000       0.57515000       0.32303000
   110  C          0.41813000       0.42485000       0.67697000
   111  H          0.55280000       0.62650000       0.37520000
   112  H          0.44720000       0.37350000       0.62480000
   113  H          0.57960000       0.62450000       0.27170000
   114  H          0.42040000       0.37550000       0.72830000
   115  H          0.70570000       0.55590000       0.33050000
   116  H          0.29430000       0.44410000       0.66950000
   117  N          0.25354000       0.16783000       0.45940160
   118  N          0.74646000       0.83217000       0.54059840
   119  O          0.15894000       0.95387000       0.67883150
   120  O          0.84106000       0.04613000       0.32116850
