data_WAMFAS01
_symmetry_space_group_name_H-M    'P1'
_symmetry_Int_Tables_number       1
loop_
_symmetry_equiv_pos_site_id
_symmetry_equiv_pos_as_xyz
1 x,y,z
_cell_length_a                   13.4433
_cell_length_b                   11.7452
_cell_length_c                   15.6323
_cell_angle_alpha                90.0
_cell_angle_beta                 114.523
_cell_angle_gamma                90.0
loop_
_atom_site_label
_atom_site_type_symbol
_atom_site_fract_x
_atom_site_fract_y
_atom_site_fract_z
     1  C          0.96178120       0.41159120       0.19476900
     2  C          0.53821880       0.91159120       0.30523100
     3  C          0.03821880       0.58840880       0.80523100
     4  C          0.46178120       0.08840880       0.69476900
     5  C          0.93920140       0.25934130       0.28863100
     6  C          0.56079860       0.75934130       0.21136900
     7  C          0.06079860       0.74065870       0.71136900
     8  C          0.43920140       0.24065870       0.78863100
     9  C          0.97458160       0.19875150       0.37463110
    10  C          0.52541840       0.69875150       0.12536890
    11  C          0.02541840       0.80124850       0.62536890
    12  C          0.47458160       0.30124850       0.87463110
    13  H          0.04050000       0.21770000       0.42420000
    14  H          0.45950000       0.71770000       0.07580000
    15  H          0.95950000       0.78230000       0.57580000
    16  H          0.54050000       0.28230000       0.92420000
    17  C          0.91250190       0.11312160       0.38480140
    18  C          0.58749810       0.61312160       0.11519860
    19  C          0.08749810       0.88687840       0.61519860
    20  C          0.41250190       0.38687840       0.88480140
    21  H          0.93700000       0.07420000       0.44170000
    22  H          0.56300000       0.57420000       0.05830000
    23  H          0.06300000       0.92580000       0.55830000
    24  H          0.43700000       0.42580000       0.94170000
    25  C          0.81379190       0.08192170       0.31296140
    26  C          0.68620810       0.58192170       0.18703860
    27  C          0.18620810       0.91807830       0.68703860
    28  C          0.31379190       0.41807830       0.81296140
    29  H          0.77290000       0.02260000       0.32130000
    30  H          0.72710000       0.52260000       0.17870000
    31  H          0.22710000       0.97740000       0.67870000
    32  H          0.27290000       0.47740000       0.82130000
    33  C          0.77764160       0.13952140       0.22996130
    34  C          0.72235840       0.63952140       0.27003870
    35  C          0.22235840       0.86047860       0.77003870
    36  C          0.27764160       0.36047860       0.72996130
    37  H          0.71130000       0.11930000       0.18150000
    38  H          0.78870000       0.61930000       0.31850000
    39  H          0.28870000       0.88070000       0.81850000
    40  H          0.21130000       0.38070000       0.68150000
    41  C          0.83855140       0.22837130       0.21640110
    42  C          0.66144860       0.72837130       0.28359890
    43  C          0.16144860       0.77162870       0.78359890
    44  C          0.33855140       0.27162870       0.71640110
    45  C          0.79535140       0.28885130       0.12720100
    46  C          0.70464860       0.78885130       0.37279900
    47  C          0.20464860       0.71114870       0.87279900
    48  C          0.29535140       0.21114870       0.62720100
    49  C          0.86116120       0.38433120       0.11985900
    50  C          0.63883880       0.88433120       0.38014100
    51  C          0.13883880       0.61566880       0.88014100
    52  C          0.36116120       0.11566880       0.61985900
    53  C          0.82175120       0.44843130       0.03802900
    54  C          0.67824880       0.94843130       0.46197100
    55  C          0.17824880       0.55156870       0.96197100
    56  C          0.32175120       0.05156870       0.53802900
    57  H          0.75480000       0.42910000       0.99000000
    58  H          0.74520000       0.92910000       0.51000000
    59  H          0.24520000       0.57090000       0.01000000
    60  H          0.25480000       0.07090000       0.49000000
    61  C          0.87905120       0.54048120       0.02555900
    62  C          0.62094880       0.04048120       0.47444100
    63  C          0.12094880       0.45951880       0.97444100
    64  C          0.37905120       0.95951880       0.52555900
    65  C          0.89629120       0.69987130       0.93519900
    66  C          0.60370880       0.19987130       0.56480100
    67  C          0.10370880       0.30012870       0.06480100
    68  C          0.39629120       0.80012870       0.43519900
    69  C          0.85411140       0.76863140       0.85380890
    70  C          0.64588860       0.26863140       0.64619110
    71  C          0.14588860       0.23136860       0.14619110
    72  C          0.35411140       0.73136860       0.35380890
    73  H          0.78730000       0.75070000       0.80500000
    74  H          0.71270000       0.25070000       0.69500000
    75  H          0.21270000       0.24930000       0.19500000
    76  H          0.28730000       0.74930000       0.30500000
    77  C          0.91118160       0.86121160       0.84674870
    78  C          0.58881840       0.36121160       0.65325130
    79  C          0.08881840       0.13878840       0.15325130
    80  C          0.41118160       0.63878840       0.34674870
    81  H          0.88270000       0.90510000       0.79230000
    82  H          0.61730000       0.40510000       0.70770000
    83  H          0.11730000       0.09490000       0.20770000
    84  H          0.38270000       0.59490000       0.29230000
    85  C          0.00996160       0.89197160       0.91785870
    86  C          0.49003840       0.39197160       0.58214130
    87  C         -0.00996160       0.10802840       0.08214130
    88  C          0.50996160       0.60802840       0.41785870
    89  H          0.04760000       0.95560000       0.91150000
    90  H          0.45240000       0.45560000       0.58850000
    91  H          0.95240000       0.04440000       0.08850000
    92  H          0.54760000       0.54440000       0.41150000
    93  C          0.05149150       0.82762140      -0.00244120
    94  C          0.44850850       0.32762140       0.50244120
    95  C          0.94850850       0.17237860       0.00244120
    96  C          0.55149150       0.67237860       0.49755880
    97  H          0.11800000       0.84790000       0.04580000
    98  H          0.38200000       0.34790000       0.45420000
    99  H          0.88200000       0.15210000       0.95420000
   100  H          0.61800000       0.65210000       0.54580000
   101  C         -0.00394870       0.73149120       0.00824100
   102  C          0.50394870       0.23149120       0.49175900
   103  C          0.00394870       0.26850880      -0.00824100
   104  C          0.49605130       0.76850880       0.50824100
   105  C          0.04430130       0.66507130       0.09385100
   106  C          0.45569870       0.16507130       0.40614900
   107  C          0.95569870       0.33492870       0.90614900
   108  C          0.54430130       0.83492870       0.59385100
   109  C          0.97915120       0.56847120       0.10082900
   110  C          0.52084880       0.06847120       0.39917100
   111  C          0.02084880       0.43152880       0.89917100
   112  C          0.47915120       0.93152880       0.60082900
   113  C          0.01801130       0.50504130       0.18309900
   114  C          0.48198870       0.00504130       0.31690100
   115  C          0.98198870       0.49495870       0.81690100
   116  C          0.51801130      -0.00504130       0.68309900
   117  H          0.08380000       0.52580000       0.23200000
   118  H          0.41620000       0.02580000       0.26800000
   119  H          0.91620000       0.47420000       0.76800000
   120  H          0.58380000       0.97420000       0.73200000
   121  C          0.10673130       0.37827140       0.35231100
   122  C          0.39326870       0.87827140       0.14768900
   123  C          0.89326870       0.62172860       0.64768900
   124  C          0.60673130       0.12172860       0.85231100
   125  H          0.15520000       0.40470000       0.32470000
   126  H          0.34480000       0.90470000       0.17530000
   127  H          0.84480000       0.59530000       0.67530000
   128  H          0.65520000       0.09530000       0.82470000
   129  H          0.13960000       0.31120000       0.38960000
   130  H          0.36040000       0.81120000       0.11040000
   131  H          0.86040000       0.68880000       0.61040000
   132  H          0.63960000       0.18880000       0.88960000
   133  C          0.09670140       0.47015150       0.41616110
   134  C          0.40329860       0.97015150       0.08383890
   135  C          0.90329860       0.52984850       0.58383890
   136  C          0.59670140       0.02984850       0.91616110
   137  H          0.04990000       0.53030000       0.37790000
   138  H          0.45010000       0.03030000       0.12210000
   139  H          0.95010000       0.46970000       0.62210000
   140  H          0.54990000       0.96970000       0.87790000
   141  H          0.06190000       0.43820000       0.45410000
   142  H          0.43810000       0.93820000       0.04590000
   143  H          0.93810000       0.56180000       0.54590000
   144  H          0.56190000       0.06180000       0.95410000
   145  C          0.20473170       0.52030180       0.47996130
   146  C          0.29526830       0.02030180       0.02003870
   147  C          0.79526830       0.47969820       0.52003870
   148  C          0.70473170       0.97969820       0.97996130
   149  H          0.23930000       0.55280000       0.44210000
   150  H          0.26070000       0.05280000       0.05790000
   151  H          0.76070000       0.44720000       0.55790000
   152  H          0.73930000       0.94720000       0.94210000
   153  H          0.25170000       0.46010000       0.51800000
   154  H          0.24830000       0.96010000       0.98200000
   155  H          0.74830000       0.53990000       0.48200000
   156  H          0.75170000       0.03990000       0.01800000
   157  C          0.19422000       0.61172000       0.54422150
   158  C          0.30578000       0.11172000       0.95577850
   159  C          0.80578000       0.38828000       0.45577850
   160  C          0.69422000       0.88828000       0.04422150
   161  H          0.13960000       0.66580000       0.50770000
   162  H          0.36040000       0.16580000      -0.00770000
   163  H          0.86040000       0.33420000       0.49230000
   164  H          0.63960000       0.83420000       0.00770000
   165  H          0.26310000       0.64970000       0.57570000
   166  H          0.23690000       0.14970000       0.92430000
   167  H          0.73690000       0.35030000       0.42430000
   168  H          0.76310000       0.85030000       0.07570000
   169  H          0.17310000       0.57730000       0.59000000
   170  H          0.32690000       0.07730000       0.91000000
   171  H          0.82690000       0.42270000       0.41000000
   172  H          0.67310000       0.92270000       0.09000000
   173  C          0.73741120       0.57204140       0.86445100
   174  C          0.76258880       0.07204140       0.63554900
   175  C          0.26258880       0.42795860       0.13554900
   176  C          0.23741120       0.92795860       0.36445100
   177  H          0.72590000       0.49080000       0.86680000
   178  H          0.77410000      -0.00920000       0.63320000
   179  H          0.27410000       0.50920000       0.13320000
   180  H          0.22590000       0.00920000       0.36680000
   181  H          0.74220000       0.58850000       0.80550000
   182  H          0.75780000       0.08850000       0.69450000
   183  H          0.25780000       0.41150000       0.19450000
   184  H          0.24220000       0.91150000       0.30550000
   185  C          0.64095140       0.63521150       0.86763890
   186  C          0.85904860       0.13521150       0.63236110
   187  C          0.35904860       0.36478850       0.13236110
   188  C          0.14095140       0.86478850       0.36763890
   189  H          0.63320000       0.61330000       0.92440000
   190  H          0.86680000       0.11330000       0.57560000
   191  H          0.36680000       0.38670000       0.07560000
   192  H          0.13320000       0.88670000       0.42440000
   193  H          0.65660000       0.71620000       0.87180000
   194  H          0.84340000       0.21620000       0.62820000
   195  H          0.34340000       0.28380000       0.12820000
   196  H          0.15660000       0.78380000       0.37180000
   197  C          0.53455140       0.61478170       0.78524870
   198  C          0.96544860       0.11478170       0.71475130
   199  C          0.46544860       0.38521830       0.21475130
   200  C          0.03455140       0.88521830       0.28524870
   201  H          0.51380000       0.53560000       0.78480000
   202  H         -0.01380000       0.03560000       0.71520000
   203  H          0.48620000       0.46440000       0.21520000
   204  H          0.01380000       0.96440000       0.28480000
   205  H          0.54330000       0.62940000       0.72770000
   206  H          0.95670000       0.12940000       0.77230000
   207  H          0.45670000       0.37060000       0.27230000
   208  H          0.04330000       0.87060000       0.22770000
   209  C          0.44434170       0.69032000       0.78813840
   210  C          0.05565830       0.19032000       0.71186160
   211  C          0.55565830       0.30968000       0.21186160
   212  C          0.94434170       0.80968000       0.28813840
   213  H          0.43960000       0.68080000       0.84730000
   214  H          0.06040000       0.18080000       0.65270000
   215  H          0.56040000       0.31920000       0.15270000
   216  H          0.93960000       0.81920000       0.34730000
   217  H          0.37590000       0.66960000       0.73800000
   218  H          0.12410000       0.16960000       0.76200000
   219  H          0.62410000       0.33040000       0.26200000
   220  H          0.87590000       0.83040000       0.23800000
   221  H          0.46040000       0.76850000       0.78090000
   222  H          0.03960000       0.26850000       0.71910000
   223  H          0.53960000       0.23150000       0.21910000
   224  H          0.96040000       0.73150000       0.28090000
   225  N          0.00138100       0.34676100       0.27683800
   226  N          0.49861900       0.84676100       0.22316200
   227  N         -0.00138100       0.65323900       0.72316200
   228  N          0.50138100       0.15323900       0.77683800
   229  N          0.84071100       0.60378100       0.94271300
   230  N          0.65928900       0.10378100       0.55728700
   231  N          0.15928900       0.39621900       0.05728700
   232  N          0.34071100       0.89621900       0.44271300
   233  O          0.70792110       0.26296100       0.06184800
   234  O          0.79207890       0.76296100       0.43815200
   235  O          0.29207890       0.73703900       0.93815200
   236  O          0.20792110       0.23703900       0.56184800
   237  O          0.13438100       0.68752100       0.15746800
   238  O          0.36561900       0.18752100       0.34253200
   239  O          0.86561900       0.31247900       0.84253200
   240  O          0.63438100       0.81247900       0.65746800
