data_WAMFAS02
_symmetry_space_group_name_H-M    'P1'
_symmetry_Int_Tables_number       1
loop_
_symmetry_equiv_pos_site_id
_symmetry_equiv_pos_as_xyz
1 x,y,z
_cell_length_a                   7.236214
_cell_length_b                   14.7373
_cell_length_c                   10.3602
_cell_angle_alpha                90.0
_cell_angle_beta                 106.603
_cell_angle_gamma                90.0
loop_
_atom_site_label
_atom_site_type_symbol
_atom_site_fract_x
_atom_site_fract_y
_atom_site_fract_z
     1  O          0.22717130       0.64648600       0.16430900
     2  O          0.77282870       0.14648600       0.33569100
     3  O          0.77282870       0.35351400       0.83569100
     4  O          0.22717130       0.85351400       0.66430900
     5  N          0.23717140       0.37807600       0.06048100
     6  N          0.76282860       0.87807600       0.43951900
     7  N          0.76282860       0.62192400       0.93951900
     8  N          0.23717140       0.12192400       0.56048100
     9  C          0.37046150       0.53037800       0.06717110
    10  C          0.62953850       0.03037800       0.43282890
    11  C          0.62953850       0.46962200       0.93282890
    12  C          0.37046150       0.96962200       0.56717110
    13  C          0.11922160       0.49673800       0.17968110
    14  C          0.88077840      -0.00326200       0.32031890
    15  C          0.88077840       0.50326200       0.82031890
    16  C          0.11922160       0.00326200       0.67968110
    17  C          0.36881160       0.43775800       0.03120110
    18  C          0.63118840       0.93775800       0.46879890
    19  C          0.63118840       0.56224200       0.96879890
    20  C          0.36881160       0.06224200       0.53120110
    21  C          0.49852160       0.59033800       0.03487120
    22  C          0.50147840       0.09033800       0.46512880
    23  C          0.50147840       0.40966200       0.96512880
    24  C          0.49852160       0.90966200       0.53487120
    25  H          0.49550000       0.65120000       0.05810000
    26  H          0.50450000       0.15120000       0.44190000
    27  H          0.50450000       0.34880000       0.94190000
    28  H          0.49550000       0.84880000       0.55810000
    29  C          0.00329180       0.34297900       0.18230130
    30  C         -0.00329180       0.84297900       0.31769870
    31  C         -0.00329180       0.65702100       0.81769870
    32  C          0.00329180       0.15702100       0.68230130
    33  H          0.00190000       0.28240000       0.15660000
    34  H         -0.00190000       0.78240000       0.34340000
    35  H         -0.00190000       0.71760000       0.84340000
    36  H          0.00190000       0.21760000       0.65660000
    37  C          0.12180150       0.40545800       0.13944110
    38  C          0.87819850       0.90545800       0.36055890
    39  C          0.87819850       0.59454200       0.86055890
    40  C          0.12180150       0.09454200       0.63944110
    41  C          0.23636160       0.56510800       0.13861110
    42  C          0.76363840       0.06510800       0.36138890
    43  C          0.76363840       0.43489200       0.86138890
    44  C          0.23636160       0.93489200       0.63861110
    45  C          0.22686170       0.28456800       0.01002120
    46  C          0.77313830       0.78456800       0.48997880
    47  C          0.77313830       0.71543200      -0.01002120
    48  C          0.22686170       0.21543200       0.51002120
    49  H          0.25940000       0.28420000       0.92550000
    50  H          0.74060000       0.78420000       0.57450000
    51  H          0.74060000       0.71580000       0.07450000
    52  H          0.25940000       0.21580000       0.42550000
    53  H          0.09550000       0.26270000      -0.00770000
    54  H          0.90450000       0.76270000       0.50770000
    55  H          0.90450000       0.73730000       0.00770000
    56  H          0.09550000       0.23730000       0.49230000
    57  C          0.00164190       0.52215900       0.26014130
    58  C         -0.00164190       0.02215900       0.23985870
    59  C         -0.00164190       0.47784100       0.73985870
    60  C          0.00164190       0.97784100       0.76014130
    61  H          0.00000000       0.58240000       0.28630000
    62  H          0.00000000       0.08240000       0.21370000
    63  H         -0.00000000       0.41760000       0.71370000
    64  H          0.00000000       0.91760000       0.78630000
    65  C          0.89033810       0.37033100       0.26117140
    66  C          0.10966190       0.87033100       0.23882860
    67  C          0.10966190       0.62966900       0.73882860
    68  C          0.89033810       0.12966900       0.76117140
    69  H          0.81350000       0.32810000       0.28830000
    70  H          0.18650000       0.82810000       0.21170000
    71  H          0.18650000       0.67190000       0.71170000
    72  H          0.81350000       0.17190000       0.78830000
    73  C          0.88918000       0.46012110       0.30095150
    74  C          0.11082000       0.96012110       0.19904850
    75  C          0.11082000       0.53987890       0.69904850
    76  C          0.88918000       0.03987890       0.80095150
    77  H          0.81280000       0.47800000       0.35490000
    78  H          0.18720000       0.97800000       0.14510000
    79  H          0.18720000       0.52200000       0.64510000
    80  H          0.81280000       0.02200000       0.85490000
    81  C          0.36153180       0.22020800       0.10812130
    82  C          0.63846820       0.72020800       0.39187870
    83  C          0.63846820       0.77979200       0.89187870
    84  C          0.36153180       0.27979200       0.60812130
    85  H          0.48630000       0.24910000       0.14300000
    86  H          0.51370000       0.74910000       0.35700000
    87  H          0.51370000       0.75090000       0.85700000
    88  H          0.48630000       0.25090000       0.64300000
    89  H          0.31020000       0.20880000       0.18350000
    90  H          0.68980000       0.70880000       0.31650000
    91  H          0.68980000       0.79120000       0.81650000
    92  H          0.31020000       0.29120000       0.68350000
    93  C          0.38822000       0.13025800       0.04432140
    94  C          0.61178000       0.63025800       0.45567860
    95  C          0.61178000       0.86974200       0.95567860
    96  C          0.38822000       0.36974200       0.54432140
    97  H          0.43980000       0.08630000       0.11520000
    98  H          0.56020000       0.58630000       0.38480000
    99  H          0.56020000       0.91370000       0.88480000
   100  H          0.43980000       0.41370000       0.61520000
   101  H          0.26310000       0.10840000      -0.00880000
   102  H          0.73690000       0.60840000       0.50880000
   103  H          0.73690000       0.89160000       0.00880000
   104  H          0.26310000       0.39160000       0.49120000
   105  C          0.52063000       0.13548110       0.95529810
   106  C          0.47937000       0.63548110       0.54470190
   107  C          0.47937000       0.86451890       0.04470190
   108  C          0.52063000       0.36451890       0.45529810
   109  H          0.47180000       0.17950000       0.88560000
   110  H          0.52820000       0.67950000       0.61440000
   111  H          0.52820000       0.82050000       0.11440000
   112  H          0.47180000       0.32050000       0.38560000
   113  H          0.52690000       0.07720000       0.91540000
   114  H          0.47310000       0.57720000       0.58460000
   115  H          0.47310000       0.92280000       0.08460000
   116  H          0.52690000       0.42280000       0.41540000
   117  H          0.64730000       0.15310000       0.00830000
   118  H          0.35270000       0.65310000       0.49170000
   119  H          0.35270000       0.84690000      -0.00830000
   120  H          0.64730000       0.34690000       0.50830000
