data_WERVEU01
_symmetry_space_group_name_H-M    'P1'
_symmetry_Int_Tables_number       1
loop_
_symmetry_equiv_pos_site_id
_symmetry_equiv_pos_as_xyz
1 x,y,z
_cell_length_a                   4.19643
_cell_length_b                   7.01295
_cell_length_c                   14.45281
_cell_angle_alpha                90.0
_cell_angle_beta                 90.9247
_cell_angle_gamma                90.0
loop_
_atom_site_label
_atom_site_type_symbol
_atom_site_fract_x
_atom_site_fract_y
_atom_site_fract_z
     1  O          0.43833000       0.33862000       0.22542800
     2  O          0.56167000       0.83862000       0.77457200
     3  C          0.60665000       0.31734000       0.14708130
     4  C          0.39335000       0.81734000       0.85291870
     5  C          0.57335000       0.14414000       0.10957140
     6  C          0.42665000       0.64414000       0.89042860
     7  H          0.66710000       0.09920000       0.05590000
     8  H          0.33290000       0.59920000       0.94410000
     9  C          0.36745000       0.04384000       0.16786140
    10  C          0.63255000       0.54384000       0.83213860
    11  H          0.29760000       0.91880000       0.16050000
    12  H          0.70240000       0.41880000       0.83950000
    13  C          0.29044000       0.16613000       0.23720120
    14  C          0.70956000       0.66613000       0.76279880
    15  N          0.79215000       0.47653000       0.12053130
    16  N          0.20785000       0.97653000       0.87946870
    17  O          0.94534000       0.45853000       0.04943110
    18  O          0.05466000       0.95853000       0.95056890
    19  O          0.79585000       0.61933000       0.16871130
    20  O          0.20415000       0.11933000       0.83128870
    21  C          0.09204000       0.15363000       0.31757120
    22  C          0.90796000       0.65363000       0.68242880
    23  H          0.05620000       0.25990000       0.35440000
    24  H          0.94380000       0.75990000       0.64560000
    25  N         -0.03343000      -0.00752000       0.33688100
    26  N          0.03343000       0.49248000       0.66311900
    27  N          0.78046000      -0.01182000       0.41303110
    28  N          0.21954000       0.48818000       0.58696890
    29  H          0.72350000       0.09530000       0.44191400
    30  H          0.27650000       0.59530000       0.55808600
    31  C          0.64725000       0.82227000       0.44125120
    32  C          0.35275000       0.32227000       0.55874880
    33  O          0.48926000       0.82133810       0.51261900
    34  O          0.51074000       0.32133810       0.48738100
    35  N          0.69814000       0.66827000       0.39040160
    36  N          0.30186000       0.16827000       0.60959840
    37  H          0.79240000       0.67260000       0.33801700
    38  H          0.20760000       0.17260000       0.66198300
    39  H          0.61240000       0.56060000       0.40901700
    40  H          0.38760000       0.06060000       0.59098300
