data_WERVEU
_symmetry_space_group_name_H-M    'P1'
_symmetry_Int_Tables_number       1
loop_
_symmetry_equiv_pos_site_id
_symmetry_equiv_pos_as_xyz
1 x,y,z
_cell_length_a                   9.9431
_cell_length_b                   8.4021
_cell_length_c                   10.2201
_cell_angle_alpha                90.0
_cell_angle_beta                 101.181
_cell_angle_gamma                90.0
loop_
_atom_site_label
_atom_site_type_symbol
_atom_site_fract_x
_atom_site_fract_y
_atom_site_fract_z
     1  O          0.50452000       0.80897000       0.73172000
     2  O         -0.00452000       0.30897000       0.26828000
     3  O          0.49548000       0.19103000       0.26828000
     4  O          0.00452000       0.69103000       0.73172000
     5  C          0.53493000       0.96675000       0.72803000
     6  C          0.96507000       0.46675000       0.27197000
     7  C          0.46507000       0.03325000       0.27197000
     8  C          0.03493000       0.53325000       0.72803000
     9  C          0.46073000       0.07484000       0.79903000
    10  C          0.03927000       0.57484000       0.20097000
    11  C          0.53927000       0.92516000       0.20097000
    12  C          0.96073000       0.42516000       0.79903000
    13  N          0.36943000       0.01923000       0.85863000
    14  N          0.13057000       0.51923000       0.14137000
    15  N          0.63057000       0.98077000       0.14137000
    16  N          0.86943000       0.48077000       0.85863000
    17  N          0.30313000       0.12283000       0.92513000
    18  N          0.19687000       0.62283000       0.07487000
    19  N          0.69687000       0.87717000       0.07487000
    20  N          0.80313000       0.37717000       0.92513000
    21  C          0.19983000       0.06454000       0.98493000
    22  C          0.30017000       0.56454000       0.01507000
    23  C          0.80017000       0.93546000       0.01507000
    24  C          0.69983000       0.43546000       0.98493000
    25  O          0.16422000       0.92398000       0.97002000
    26  O          0.33578000       0.42398000       0.02998000
    27  O          0.83578000       0.07602000       0.02998000
    28  O          0.66422000       0.57602000       0.97002000
    29  N          0.14333000       0.16853000       0.05413000
    30  N          0.35667000       0.66853000       0.94587000
    31  N          0.85667000       0.83147000       0.94587000
    32  N          0.64333000       0.33147000       0.05413000
    33  C          0.63274000      -0.01087000       0.65464000
    34  C          0.86726000       0.48913000       0.34536000
    35  C          0.36726000       0.01087000       0.34536000
    36  C          0.13274000       0.51087000       0.65464000
    37  C          0.66674000       0.84013000       0.61154000
    38  C          0.83326000       0.34013000       0.38846000
    39  C          0.33326000       0.15987000       0.38846000
    40  C          0.16674000       0.65987000       0.61154000
    41  C          0.58803000       0.73585000       0.65953000
    42  C          0.91197000       0.23585000       0.34047000
    43  C          0.41197000       0.26415000       0.34047000
    44  C          0.08803000       0.76415000       0.65953000
    45  N          0.57614000       0.56775000       0.65023000
    46  N          0.92386000       0.06775000       0.34977000
    47  N          0.42386000       0.43225000       0.34977000
    48  N          0.07614000       0.93225000       0.65023000
    49  O          0.49184000       0.49907000       0.70383000
    50  O          0.00816000      -0.00093000       0.29617000
    51  O          0.50816000       0.50093000       0.29617000
    52  O         -0.00816000       0.00093000       0.70383000
    53  O          0.65533000       0.50005000       0.58953000
    54  O          0.84467000       0.00005000       0.41047000
    55  O          0.34467000       0.49995000       0.41047000
    56  O          0.15533000      -0.00005000       0.58953000
    57  H          0.48540000       0.18350000       0.79940000
    58  H          0.01460000       0.68350000       0.20060000
    59  H          0.51460000       0.81650000       0.20060000
    60  H         -0.01460000       0.31650000       0.79940000
    61  H          0.32830000       0.22630000       0.94630000
    62  H          0.17170000       0.72630000       0.05370000
    63  H          0.67170000       0.77370000       0.05370000
    64  H          0.82830000       0.27370000       0.94630000
    65  H          0.17940000       0.26830000       0.06940000
    66  H          0.32060000       0.76830000       0.93060000
    67  H          0.82060000       0.73170000       0.93060000
    68  H          0.67940000       0.23170000       0.06940000
    69  H          0.08140000       0.13750000       0.10440000
    70  H          0.41860000       0.63750000       0.89560000
    71  H          0.91860000       0.86250000       0.89560000
    72  H          0.58140000       0.36250000       0.10440000
    73  H          0.65840000       0.09250000       0.64150000
    74  H          0.84160000       0.59250000       0.35850000
    75  H          0.34160000       0.90750000       0.35850000
    76  H          0.15840000       0.40750000       0.64150000
    77  H          0.72750000       0.80340000       0.55650000
    78  H          0.77250000       0.30340000       0.44350000
    79  H          0.27250000       0.19660000       0.44350000
    80  H          0.22750000       0.69660000       0.55650000
