data_WERVEU02
_symmetry_space_group_name_H-M    'P1'
_symmetry_Int_Tables_number       1
loop_
_symmetry_equiv_pos_site_id
_symmetry_equiv_pos_as_xyz
1 x,y,z
_cell_length_a                   13.57036
_cell_length_b                   7.82543
_cell_length_c                   7.96774
_cell_angle_alpha                90.0
_cell_angle_beta                 102.2604
_cell_angle_gamma                90.0
loop_
_atom_site_label
_atom_site_type_symbol
_atom_site_fract_x
_atom_site_fract_y
_atom_site_fract_z
     1  O          0.23439400       0.16292700       0.51987700
     2  O          0.76560600       0.66292700       0.98012300
     3  O          0.76560600       0.83707300       0.48012300
     4  O          0.23439400       0.33707300       0.01987700
     5  C          0.15329600       0.13258110       0.58773110
     6  C          0.84670400       0.63258110       0.91226890
     7  C          0.84670400       0.86741890       0.41226890
     8  C          0.15329600       0.36741890       0.08773110
     9  C          0.10884700       0.27700120       0.62574120
    10  C          0.89115300       0.77700120       0.87425880
    11  C          0.89115300       0.72299880       0.37425880
    12  C          0.10884700       0.22299880       0.12574120
    13  H          0.05190000       0.28630000       0.67270000
    14  H          0.94810000       0.78630000       0.82730000
    15  H          0.94810000       0.71370000       0.32730000
    16  H          0.05190000       0.21370000       0.17270000
    17  C          0.16699700       0.41115120       0.57904120
    18  C          0.83300300       0.91115120       0.92095880
    19  C          0.83300300       0.58884880       0.42095880
    20  C          0.16699700       0.08884880       0.07904120
    21  H          0.15610000       0.52760000       0.58990000
    22  H          0.84390000       0.02760000       0.91010000
    23  H          0.84390000       0.47240000       0.41010000
    24  H          0.15610000       0.97240000       0.08990000
    25  C          0.24227600       0.33758110       0.51490100
    26  C          0.75772400       0.83758110      -0.01490100
    27  C          0.75772400       0.66241890       0.48509900
    28  C          0.24227600       0.16241890       0.01490100
    29  N          0.12908600       0.95864900       0.60652100
    30  N          0.87091400       0.45864900       0.89347900
    31  N          0.87091400       0.04135100       0.39347900
    32  N          0.12908600       0.54135100       0.10652100
    33  O          0.05919600       0.92940890       0.67792100
    34  O          0.94080400       0.42940890       0.82207900
    35  O          0.94080400       0.07059110       0.32207900
    36  O          0.05919600       0.57059110       0.17792100
    37  O          0.17783700       0.84819100       0.55223120
    38  O          0.82216300       0.34819100       0.94776880
    39  O          0.82216300       0.15180900       0.44776880
    40  O          0.17783700       0.65180900       0.05223120
    41  C          0.32308600       0.39903100       0.44028110
    42  C          0.67691400       0.89903100       0.05971890
    43  C          0.67691400       0.60096900       0.55971890
    44  C          0.32308600       0.10096900       0.94028110
    45  H          0.36570000       0.32230000       0.40180000
    46  H          0.63430000       0.82230000       0.09820000
    47  H          0.63430000       0.67770000       0.59820000
    48  H          0.36570000       0.17770000       0.90180000
    49  N          0.33598500       0.56055900       0.42712900
    50  N          0.66401500       0.06055900       0.07287100
    51  N          0.66401500       0.43944100       0.57287100
    52  N          0.33598500       0.93944100       0.92712900
    53  N          0.41281600       0.60742900       0.35253900
    54  N          0.58718400       0.10742900       0.14746100
    55  N          0.58718400       0.39257100       0.64746100
    56  N          0.41281600       0.89257100       0.85253900
    57  H          0.45288000       0.53331400       0.31291300
    58  H          0.54712000       0.03331400       0.18708700
    59  H          0.54712000       0.46668600       0.68708700
    60  H          0.45288000       0.96668600       0.81291300
    61  C          0.43657700       0.77623110       0.34068110
    62  C          0.56342300       0.27623110       0.15931890
    63  C          0.56342300       0.22376890       0.65931890
    64  C          0.43657700       0.72376890       0.84068110
    65  O          0.51014600       0.81353900       0.28090100
    66  O          0.48985400       0.31353900       0.21909900
    67  O          0.48985400       0.18646100       0.71909900
    68  O          0.51014600       0.68646100       0.78090100
    69  N          0.37769700       0.88891110       0.39663130
    70  N          0.62230300       0.38891110       0.10336870
    71  N          0.62230300       0.11108890       0.60336870
    72  N          0.37769700       0.61108890       0.89663130
    73  H          0.32351000       0.85651500       0.43981500
    74  H          0.67649000       0.35651500       0.06018500
    75  H          0.67649000       0.14348500       0.56018500
    76  H          0.32351000       0.64348500       0.93981500
    77  H          0.39269000      -0.00668300       0.38961500
    78  H          0.60731000       0.49331700       0.11038500
    79  H          0.60731000       0.00668300       0.61038500
    80  H          0.39269000       0.50668300       0.88961500
