data_WIRMOZ01
_symmetry_space_group_name_H-M    'P1'
_symmetry_Int_Tables_number       1
loop_
_symmetry_equiv_pos_site_id
_symmetry_equiv_pos_as_xyz
1 x,y,z
_cell_length_a                   8.381313
_cell_length_b                   9.662316
_cell_length_c                   27.0564
_cell_angle_alpha                90.0
_cell_angle_beta                 90.0
_cell_angle_gamma                90.0
loop_
_atom_site_label
_atom_site_type_symbol
_atom_site_fract_x
_atom_site_fract_y
_atom_site_fract_z
     1  S          0.04860600       0.27595600       0.44376118
     2  S          0.45139400       0.72404400       0.94376118
     3  S          0.95139400       0.77595600       0.05623882
     4  S          0.54860600       0.22404400       0.55623882
     5  S          0.95139400       0.72404400       0.55623882
     6  S          0.54860600       0.27595600       0.05623882
     7  S          0.04860600       0.22404400       0.94376118
     8  S          0.45139400       0.77595600       0.44376118
     9  O          0.90393190       0.35559180       0.43881600
    10  O          0.59606810       0.64440820       0.93881600
    11  O          0.09606810       0.85559180       0.06118400
    12  O          0.40393190       0.14440820       0.56118400
    13  O          0.09606810       0.64440820       0.56118400
    14  O          0.40393190       0.35559180       0.06118400
    15  O          0.90393190       0.14440820       0.93881600
    16  O          0.59606810       0.85559180       0.43881600
    17  O          0.06422000       0.16138190       0.40993600
    18  O          0.43578000       0.83861810       0.90993600
    19  O          0.93578000       0.66138190       0.09006400
    20  O          0.56422000       0.33861810       0.59006400
    21  O          0.93578000       0.83861810       0.59006400
    22  O          0.56422000       0.16138190       0.09006400
    23  O          0.06422000       0.33861810       0.90993600
    24  O          0.43578000       0.66138190       0.40993600
    25  O          0.18966170       0.36491160       0.44371500
    26  O          0.31033830       0.63508840       0.94371500
    27  O          0.81033830       0.86491160       0.05628500
    28  O          0.68966170       0.13508840       0.55628500
    29  O          0.81033830       0.63508840       0.55628500
    30  O          0.68966170       0.36491160       0.05628500
    31  O          0.18966170       0.13508840       0.94371500
    32  O          0.31033830       0.86491160       0.44371500
    33  H          0.26200000       0.32800000       0.42550000
    34  H          0.23800000       0.67200000       0.92550000
    35  H          0.73800000       0.82800000       0.07450000
    36  H          0.76200000       0.17200000       0.57450000
    37  H          0.73800000       0.67200000       0.57450000
    38  H          0.76200000       0.32800000       0.07450000
    39  H          0.26200000       0.17200000       0.92550000
    40  H          0.23800000       0.82800000       0.42550000
    41  O          0.77462000       0.33570170       0.78314600
    42  O          0.72538000       0.66429830       0.28314600
    43  O          0.22538000       0.83570170       0.71685400
    44  O          0.27462000       0.16429830       0.21685400
    45  O          0.22538000       0.66429830       0.21685400
    46  O          0.27462000       0.33570170       0.71685400
    47  O          0.77462000       0.16429830       0.28314600
    48  O          0.72538000       0.83570170       0.78314600
    49  H          0.69940000       0.30030000       0.78671100
    50  H          0.80060000       0.69970000       0.28671100
    51  H          0.30060000       0.80030000       0.71328900
    52  H          0.19940000       0.19970000       0.21328900
    53  H          0.30060000       0.69970000       0.21328900
    54  H          0.19940000       0.30030000       0.71328900
    55  H          0.69940000       0.19970000       0.28671100
    56  H          0.80060000       0.80030000       0.78671100
    57  N          0.96747190       0.25262170       0.59097600
    58  N          0.53252810       0.74737830       0.09097600
    59  N          0.03252810       0.75262170       0.90902400
    60  N          0.46747190       0.24737830       0.40902400
    61  N          0.03252810       0.74737830       0.40902400
    62  N          0.46747190       0.25262170       0.90902400
    63  N          0.96747190       0.24737830       0.09097600
    64  N          0.53252810       0.75262170       0.59097600
    65  N          0.97735190       0.20089170       0.69669600
    66  N          0.52264810       0.79910830       0.19669600
    67  N          0.02264810       0.70089170       0.80330400
    68  N          0.47735190       0.29910830       0.30330400
    69  N          0.02264810       0.79910830       0.30330400
    70  N          0.47735190       0.20089170       0.80330400
    71  N          0.97735190       0.29910830       0.19669600
    72  N          0.52264810       0.70089170       0.69669600
    73  C          0.07252000       0.14322000       0.61282700
    74  C          0.42748000       0.85678000       0.11282700
    75  C          0.92748000       0.64322000       0.88717300
    76  C          0.57252000       0.35678000       0.38717300
    77  C          0.92748000       0.85678000       0.38717300
    78  C          0.57252000       0.14322000       0.88717300
    79  C          0.07252000       0.35678000       0.11282700
    80  C          0.42748000       0.64322000       0.61282700
    81  H          0.17740000       0.18150000       0.61950000
    82  H          0.32260000       0.81850000       0.11950000
    83  H          0.82260000       0.68150000       0.88050000
    84  H          0.67740000       0.31850000       0.38050000
    85  H          0.82260000       0.81850000       0.38050000
    86  H          0.67740000       0.18150000       0.88050000
    87  H          0.17740000       0.31850000       0.11950000
    88  H          0.32260000       0.68150000       0.61950000
    89  H          0.08480000       0.06760000       0.58950000
    90  H          0.41520000       0.93240000       0.08950000
    91  H          0.91520000       0.56760000       0.91050000
    92  H          0.58480000       0.43240000       0.41050000
    93  H          0.91520000       0.93240000       0.41050000
    94  H          0.58480000       0.06760000       0.91050000
    95  H          0.08480000       0.43240000       0.08950000
    96  H          0.41520000       0.56760000       0.58950000
    97  C          0.00013000       0.09002000       0.66014700
    98  C          0.49987000       0.90998000       0.16014700
    99  C         -0.00013000       0.59002000       0.83985300
   100  C          0.50013000       0.40998000       0.33985300
   101  C         -0.00013000       0.90998000       0.33985300
   102  C          0.50013000       0.09002000       0.83985300
   103  C          0.00013000       0.40998000       0.16014700
   104  C          0.49987000       0.59002000       0.66014700
   105  H          0.89790000       0.04750000       0.65290000
   106  H          0.60210000       0.95250000       0.15290000
   107  H          0.10210000       0.54750000       0.84710000
   108  H          0.39790000       0.45250000       0.34710000
   109  H          0.10210000       0.95250000       0.34710000
   110  H          0.39790000       0.04750000       0.84710000
   111  H          0.89790000       0.45250000       0.15290000
   112  H          0.60210000       0.54750000       0.65290000
   113  H          0.06910000       0.01940000       0.67400000
   114  H          0.43090000       0.98060000       0.17400000
   115  H          0.93090000       0.51940000       0.82600000
   116  H          0.56910000       0.48060000       0.32600000
   117  H          0.93090000       0.98060000       0.32600000
   118  H          0.56910000       0.01940000       0.82600000
   119  H          0.06910000       0.48060000       0.17400000
   120  H          0.43090000       0.51940000       0.67400000
   121  C          0.87183000       0.30582000       0.67489700
   122  C          0.62817000       0.69418000       0.17489700
   123  C          0.12817000       0.80582000       0.82510300
   124  C          0.37183000       0.19418000       0.32510300
   125  C          0.12817000       0.69418000       0.32510300
   126  C          0.37183000       0.30582000       0.82510300
   127  C          0.87183000       0.19418000       0.17489700
   128  C          0.62817000       0.80582000       0.67489700
   129  H          0.85470000       0.37970000       0.69860000
   130  H          0.64530000       0.62030000       0.19860000
   131  H          0.14530000       0.87970000       0.80140000
   132  H          0.35470000       0.12030000       0.30140000
   133  H          0.14530000       0.62030000       0.30140000
   134  H          0.35470000       0.37970000       0.80140000
   135  H          0.85470000       0.12030000       0.19860000
   136  H          0.64530000       0.87970000       0.69860000
   137  H          0.76910000       0.26430000       0.66750000
   138  H          0.73090000       0.73570000       0.16750000
   139  H          0.23090000       0.76430000       0.83250000
   140  H          0.26910000       0.23570000       0.33250000
   141  H          0.23090000       0.73570000       0.33250000
   142  H          0.26910000       0.26430000       0.83250000
   143  H          0.76910000       0.23570000       0.16750000
   144  H          0.73090000       0.76430000       0.66750000
   145  C          0.94243000       0.36512000       0.62809700
   146  C          0.55757000       0.63488000       0.12809700
   147  C          0.05757000       0.86512000       0.87190300
   148  C          0.44243000       0.13488000       0.37190300
   149  C          0.05757000       0.63488000       0.37190300
   150  C          0.44243000       0.36512000       0.87190300
   151  C          0.94243000       0.13488000       0.12809700
   152  C          0.55757000       0.86512000       0.62809700
   153  H          0.87110000       0.43450000       0.61460000
   154  H          0.62890000       0.56550000       0.11460000
   155  H          0.12890000       0.93450000       0.88540000
   156  H          0.37110000       0.06550000       0.38540000
   157  H          0.12890000       0.56550000       0.38540000
   158  H          0.37110000       0.43450000       0.88540000
   159  H          0.87110000       0.06550000       0.11460000
   160  H          0.62890000       0.93450000       0.61460000
   161  H          0.04360000       0.40930000       0.63550000
   162  H          0.45640000       0.59070000       0.13550000
   163  H          0.95640000       0.90930000       0.86450000
   164  H          0.54360000       0.09070000       0.36450000
   165  H          0.95640000       0.59070000       0.36450000
   166  H          0.54360000       0.40930000       0.86450000
   167  H          0.04360000       0.09070000       0.13550000
   168  H          0.45640000       0.90930000       0.63550000
   169  C          0.91053000       0.14062000       0.74216700
   170  C          0.58947000       0.85938000       0.24216700
   171  C          0.08947000       0.64062000       0.75783300
   172  C          0.41053000       0.35938000       0.25783300
   173  C          0.08947000       0.85938000       0.25783300
   174  C          0.41053000       0.14062000       0.75783300
   175  C          0.91053000       0.35938000       0.24216700
   176  C          0.58947000       0.64062000       0.74216700
   177  H          0.97530000       0.06170000       0.75160000
   178  H          0.52470000       0.93830000       0.25160000
   179  H          0.02470000       0.56170000       0.74840000
   180  H          0.47530000       0.43830000       0.24840000
   181  H          0.02470000       0.93830000       0.24840000
   182  H          0.47530000       0.06170000       0.74840000
   183  H          0.97530000       0.43830000       0.25160000
   184  H          0.52470000       0.56170000       0.75160000
   185  H          0.80410000       0.10670000       0.73510000
   186  H          0.69590000       0.89330000       0.23510000
   187  H          0.19590000       0.60670000       0.76490000
   188  H          0.30410000       0.39330000       0.26490000
   189  H          0.19590000       0.89330000       0.26490000
   190  H          0.30410000       0.10670000       0.76490000
   191  H          0.80410000       0.39330000       0.23510000
   192  H          0.69590000       0.60670000       0.73510000
   193  C          0.03213000       0.31042000       0.54346800
   194  C          0.46787000       0.68958000       0.04346800
   195  C          0.96787000       0.81042000       0.95653200
   196  C          0.53213000       0.18958000       0.45653200
   197  C          0.96787000       0.68958000       0.45653200
   198  C          0.53213000       0.31042000       0.95653200
   199  C          0.03213000       0.18958000       0.04346800
   200  C          0.46787000       0.81042000       0.54346800
   201  H          0.13750000       0.34870000       0.54930000
   202  H          0.36250000       0.65130000       0.04930000
   203  H          0.86250000       0.84870000       0.95070000
   204  H          0.63750000       0.15130000       0.45070000
   205  H          0.86250000       0.65130000       0.45070000
   206  H          0.63750000       0.34870000       0.95070000
   207  H          0.13750000       0.15130000       0.04930000
   208  H          0.36250000       0.84870000       0.54930000
   209  H          0.96350000       0.38480000       0.53220000
   210  H          0.53650000       0.61520000       0.03220000
   211  H          0.03650000       0.88480000       0.96780000
   212  H          0.46350000       0.11520000       0.46780000
   213  H          0.03650000       0.61520000       0.46780000
   214  H          0.46350000       0.38480000       0.96780000
   215  H          0.96350000       0.11520000       0.03220000
   216  H          0.53650000       0.88480000       0.53220000
   217  C          0.90113000       0.23902000       0.78573800
   218  C          0.59887000       0.76098000       0.28573800
   219  C          0.09887000       0.73902000       0.71426200
   220  C          0.40113000       0.26098000       0.21426200
   221  C          0.09887000       0.76098000       0.21426200
   222  C          0.40113000       0.23902000       0.71426200
   223  C          0.90113000       0.26098000       0.28573800
   224  C          0.59887000       0.73902000       0.78573800
   225  H          0.88920000       0.18510000       0.81570000
   226  H          0.61080000       0.81490000       0.31570000
   227  H          0.11080000       0.68510000       0.68430000
   228  H          0.38920000       0.31490000       0.18430000
   229  H          0.11080000       0.81490000       0.18430000
   230  H          0.38920000       0.18510000       0.68430000
   231  H          0.88920000       0.31490000       0.31570000
   232  H          0.61080000       0.68510000       0.81570000
   233  H          0.00100000       0.28920000       0.78810000
   234  H          0.49900000       0.71080000       0.28810000
   235  H         -0.00100000       0.78920000       0.71190000
   236  H          0.50100000       0.21080000       0.21190000
   237  H         -0.00100000       0.71080000       0.21190000
   238  H          0.50100000       0.28920000       0.71190000
   239  H          0.00100000       0.21080000       0.28810000
   240  H          0.49900000       0.78920000       0.78810000
   241  C          0.04242000       0.20052000       0.50383800
   242  C          0.45758000       0.79948000       0.00383800
   243  C          0.95758000       0.70052000      -0.00383800
   244  C          0.54242000       0.29948000       0.49616200
   245  C          0.95758000       0.79948000       0.49616200
   246  C          0.54242000       0.20052000      -0.00383800
   247  C          0.04242000       0.29948000       0.00383800
   248  C          0.45758000       0.70052000       0.50383800
   249  H          0.95050000       0.13970000       0.50620000
   250  H          0.54950000       0.86030000       0.00620000
   251  H          0.04950000       0.63970000       0.99380000
   252  H          0.45050000       0.36030000       0.49380000
   253  H          0.04950000       0.86030000       0.49380000
   254  H          0.45050000       0.13970000       0.99380000
   255  H          0.95050000       0.36030000       0.00620000
   256  H          0.54950000       0.63970000       0.50620000
   257  H          0.13750000       0.14510000       0.50900000
   258  H          0.36250000       0.85490000       0.00900000
   259  H          0.86250000       0.64510000       0.99100000
   260  H          0.63750000       0.35490000       0.49100000
   261  H          0.86250000       0.85490000       0.49100000
   262  H          0.63750000       0.14510000       0.99100000
   263  H          0.13750000       0.35490000       0.00900000
   264  H          0.36250000       0.64510000       0.50900000
