data_WIRMOZ02
_symmetry_space_group_name_H-M    'P1'
_symmetry_Int_Tables_number       1
loop_
_symmetry_equiv_pos_site_id
_symmetry_equiv_pos_as_xyz
1 x,y,z
_cell_length_a                   8.34101
_cell_length_b                   9.56701
_cell_length_c                   27.06601
_cell_angle_alpha                90.0
_cell_angle_beta                 90.0
_cell_angle_gamma                90.0
loop_
_atom_site_label
_atom_site_type_symbol
_atom_site_fract_x
_atom_site_fract_y
_atom_site_fract_z
     1  S          0.44976480       0.77663760       0.55587520
     2  S          0.05023520       0.22336240       0.05587520
     3  S          0.55023520       0.27663760       0.94412480
     4  S          0.94976480       0.72336240       0.44412480
     5  S          0.55023520       0.22336240       0.44412480
     6  S          0.94976480       0.77663760       0.94412480
     7  S          0.44976480       0.72336240       0.05587520
     8  S          0.05023520       0.27663760       0.55587520
     9  N          0.52317200       0.69925200       0.30278570
    10  N          0.97682800       0.30074800       0.80278570
    11  N          0.47682800       0.19925200       0.19721430
    12  N          0.02317200       0.80074800       0.69721430
    13  N          0.47682800       0.30074800       0.69721430
    14  N          0.02317200       0.69925200       0.19721430
    15  N          0.52317200       0.80074800       0.80278570
    16  N          0.97682800       0.19925200       0.30278570
    17  O          0.30713200       0.86815200       0.55576870
    18  O          0.19286800       0.13184800       0.05576870
    19  O          0.69286800       0.36815200       0.94423130
    20  O          0.80713200       0.63184800       0.44423130
    21  O          0.69286800       0.13184800       0.44423130
    22  O          0.80713200       0.86815200       0.94423130
    23  O          0.30713200       0.63184800       0.05576870
    24  O          0.19286800       0.36815200       0.55576870
    25  N          0.53191200       0.75196200       0.40869770
    26  N          0.96808800       0.24803800       0.90869770
    27  N          0.46808800       0.25196200       0.09130230
    28  N          0.03191200       0.74803800       0.59130230
    29  N          0.46808800       0.24803800       0.59130230
    30  N          0.03191200       0.75196200       0.09130230
    31  N          0.53191200       0.74803800       0.90869770
    32  N          0.96808800       0.25196200       0.40869770
    33  O          0.72742300       0.83527200       0.21635380
    34  O          0.77257700       0.16472800       0.71635380
    35  O          0.27257700       0.33527200       0.28364620
    36  O          0.22742300       0.66472800       0.78364620
    37  O          0.27257700       0.16472800       0.78364620
    38  O          0.22742300       0.83527200       0.28364620
    39  O          0.72742300       0.66472800       0.71635380
    40  O          0.77257700       0.33527200       0.21635380
    41  C          0.45506300       0.69919300       0.49579890
    42  C          0.04493700       0.30080700      -0.00420110
    43  C          0.54493700       0.19919300       0.00420110
    44  C          0.95506300       0.80080700       0.50420110
    45  C          0.54493700       0.30080700       0.50420110
    46  C          0.95506300       0.69919300       0.00420110
    47  C          0.45506300       0.80080700      -0.00420110
    48  C          0.04493700       0.19919300       0.49579890
    49  C          0.49778300       0.58710200       0.33921180
    50  C          0.00221700       0.41289800       0.83921180
    51  C          0.50221700       0.08710200       0.16078820
    52  C         -0.00221700       0.91289800       0.66078820
    53  C          0.50221700       0.41289800       0.66078820
    54  C         -0.00221700       0.58710200       0.16078820
    55  C          0.49778300       0.91289800       0.83921180
    56  C          0.00221700       0.08710200       0.33921180
    57  O          0.59735300       0.85596300       0.56091090
    58  O          0.90264700       0.14403700       0.06091090
    59  O          0.40264700       0.35596300       0.93908910
    60  O          0.09735300       0.64403700       0.43908910
    61  O          0.40264700       0.14403700       0.43908910
    62  O          0.09735300       0.85596300       0.93908910
    63  O          0.59735300       0.64403700       0.06091090
    64  O          0.90264700       0.35596300       0.56091090
    65  C          0.56026300       0.86534200       0.37151990
    66  C          0.93973700       0.13465800       0.87151990
    67  C          0.43973700       0.36534200       0.12848010
    68  C          0.06026300       0.63465800       0.62848010
    69  C          0.43973700       0.13465800       0.62848010
    70  C          0.06026300       0.86534200       0.12848010
    71  C          0.56026300       0.63465800       0.87151990
    72  C          0.93973700       0.36534200       0.37151990
    73  C          0.42540300       0.64240200       0.38673680
    74  C          0.07459700       0.35759800       0.88673680
    75  C          0.57459700       0.14240200       0.11326320
    76  C          0.92540300       0.85759800       0.61326320
    77  C          0.57459700       0.35759800       0.61326320
    78  C          0.92540300       0.64240200       0.11326320
    79  C          0.42540300       0.85759800       0.88673680
    80  C          0.07459700       0.14240200       0.38673680
    81  C          0.63131300       0.80396200       0.32461880
    82  C          0.86868700       0.19603800       0.82461880
    83  C          0.36868700       0.30396200       0.17538120
    84  C          0.13131300       0.69603800       0.67538120
    85  C          0.36868700       0.19603800       0.67538120
    86  C          0.13131300       0.80396200       0.17538120
    87  C          0.63131300       0.69603800       0.82461880
    88  C          0.86868700       0.30396200       0.32461880
    89  C          0.46765300       0.81142300       0.45603290
    90  C          0.03234700       0.18857700       0.95603290
    91  C          0.53234700       0.31142300       0.04396710
    92  C          0.96765300       0.68857700       0.54396710
    93  C          0.53234700       0.18857700       0.54396710
    94  C          0.96765300       0.81142300       0.04396710
    95  C          0.46765300       0.68857700       0.95603290
    96  C          0.03234700       0.31142300       0.45603290
    97  C          0.59941300       0.73733300       0.21350590
    98  C          0.90058700       0.26266700       0.71350590
    99  C          0.40058700       0.23733300       0.28649410
   100  C          0.09941300       0.76266700       0.78649410
   101  C          0.40058700       0.26266700       0.78649410
   102  C          0.09941300       0.73733300       0.28649410
   103  C          0.59941300       0.76266700       0.71350590
   104  C          0.90058700       0.23733300       0.21350590
   105  C          0.58957300       0.63743200       0.25730680
   106  C          0.91042700       0.36256800       0.75730680
   107  C          0.41042700       0.13743200       0.24269320
   108  C          0.08957300       0.86256800       0.74269320
   109  C          0.41042700       0.36256800       0.74269320
   110  C          0.08957300       0.63743200       0.24269320
   111  C          0.58957300       0.86256800       0.75730680
   112  C          0.91042700       0.13743200       0.25730680
   113  O          0.43278400       0.66097300       0.59028390
   114  O          0.06721600       0.33902700       0.09028390
   115  O          0.56721600       0.16097300       0.90971610
   116  O          0.93278400       0.83902700       0.40971610
   117  O          0.56721600       0.33902700       0.40971610
   118  O          0.93278400       0.66097300       0.90971610
   119  O          0.43278400       0.83902700       0.09028390
   120  O          0.06721600       0.16097300       0.59028390
   121  H          0.54161000       0.63631000       0.49554000
   122  H          0.95839000       0.36369000      -0.00446000
   123  H          0.45839000       0.13631000       0.00446000
   124  H          0.04161000       0.86369000       0.50446000
   125  H          0.45839000       0.36369000       0.50446000
   126  H          0.04161000       0.63631000       0.00446000
   127  H          0.54161000       0.86369000      -0.00446000
   128  H          0.95839000       0.13631000       0.49554000
   129  H          0.52349000       0.55529000       0.24883000
   130  H          0.97651000       0.44471000       0.74883000
   131  H          0.47651000       0.05529000       0.25117000
   132  H          0.02349000       0.94471000       0.75117000
   133  H          0.47651000       0.44471000       0.75117000
   134  H          0.02349000       0.55529000       0.25117000
   135  H          0.52349000       0.94471000       0.74883000
   136  H          0.97651000       0.05529000       0.24883000
   137  H          0.54459000       0.88741000       0.46733000
   138  H          0.95541000       0.11259000       0.96733000
   139  H          0.45541000       0.38741000       0.03267000
   140  H          0.04459000       0.61259000       0.53267000
   141  H          0.45541000       0.11259000       0.53267000
   142  H          0.04459000       0.88741000       0.03267000
   143  H          0.54459000       0.61259000       0.96733000
   144  H          0.95541000       0.38741000       0.46733000
   145  H          0.64531000       0.87848000       0.30013000
   146  H          0.85469000       0.12152000       0.80013000
   147  H          0.35469000       0.37848000       0.19987000
   148  H          0.14531000       0.62152000       0.69987000
   149  H          0.35469000       0.12152000       0.69987000
   150  H          0.14531000       0.87848000       0.19987000
   151  H          0.64531000       0.62152000       0.80013000
   152  H          0.85469000       0.37848000       0.30013000
   153  H          0.70058000       0.59257000       0.26433000
   154  H          0.79942000       0.40743000       0.76433000
   155  H          0.29942000       0.09257000       0.23567000
   156  H          0.20058000       0.90743000       0.73567000
   157  H          0.29942000       0.40743000       0.73567000
   158  H          0.20058000       0.59257000       0.23567000
   159  H          0.70058000       0.90743000       0.76433000
   160  H          0.79942000       0.09257000       0.26433000
   161  H          0.45769000       0.90631000       0.36653000
   162  H          0.04231000       0.09369000       0.86653000
   163  H          0.54231000       0.40631000       0.13347000
   164  H          0.95769000       0.59369000       0.63347000
   165  H          0.54231000       0.09369000       0.63347000
   166  H          0.95769000       0.90631000       0.13347000
   167  H          0.45769000       0.59369000       0.86653000
   168  H          0.04231000       0.40631000       0.36653000
   169  H          0.41731100       0.57219000       0.40863000
   170  H          0.08268900       0.42781000       0.90863000
   171  H          0.58268900       0.07219000       0.09137000
   172  H          0.91731100       0.92781000       0.59137000
   173  H          0.58268900       0.42781000       0.59137000
   174  H          0.91731100       0.57219000       0.09137000
   175  H          0.41731100       0.92781000       0.90863000
   176  H          0.08268900       0.07219000       0.40863000
   177  H          0.32019000       0.68788000       0.38223000
   178  H          0.17981000       0.31212000       0.88223000
   179  H          0.67981000       0.18788000       0.11777000
   180  H          0.82019000       0.81212000       0.61777000
   181  H          0.67981000       0.31212000       0.61777000
   182  H          0.82019000       0.68788000       0.11777000
   183  H          0.32019000       0.81212000       0.88223000
   184  H          0.17981000       0.18788000       0.38223000
   185  H          0.73671000       0.76308000       0.33283000
   186  H          0.76329000       0.23692000       0.83283000
   187  H          0.26329000       0.26308000       0.16717000
   188  H          0.23671000       0.73692000       0.66717000
   189  H          0.26329000       0.23692000       0.66717000
   190  H          0.23671000       0.76308000       0.16717000
   191  H          0.73671000       0.73692000       0.83283000
   192  H          0.76329000       0.26308000       0.33283000
   193  H          0.81381200       0.78979000       0.21273000
   194  H          0.68618800       0.21021000       0.71273000
   195  H          0.18618800       0.28979000       0.28727000
   196  H          0.31381200       0.71021000       0.78727000
   197  H          0.18618800       0.21021000       0.78727000
   198  H          0.31381200       0.78979000       0.28727000
   199  H          0.81381200       0.71021000       0.71273000
   200  H          0.68618800       0.28979000       0.21273000
   201  H          0.60069000       0.53948000       0.34723000
   202  H          0.89931000       0.46052000       0.84723000
   203  H          0.39931000       0.03948000       0.15277000
   204  H          0.10069000       0.96052000       0.65277000
   205  H          0.39931000       0.46052000       0.65277000
   206  H          0.10069000       0.53948000       0.15277000
   207  H          0.60069000       0.96052000       0.84723000
   208  H          0.89931000       0.03948000       0.34723000
   209  H          0.63091000       0.93157000       0.38603000
   210  H          0.86909000       0.06843000       0.88603000
   211  H          0.36909000       0.43157000       0.11397000
   212  H          0.13091000       0.56843000       0.61397000
   213  H          0.36909000       0.06843000       0.61397000
   214  H          0.13091000       0.93157000       0.11397000
   215  H          0.63091000       0.56843000       0.88603000
   216  H          0.86909000       0.43157000       0.38603000
   217  H          0.42421000       0.51929000       0.32603000
   218  H          0.07579000       0.48071000       0.82603000
   219  H          0.57579000       0.01929000       0.17397000
   220  H          0.92421000       0.98071000       0.67397000
   221  H          0.57579000       0.48071000       0.67397000
   222  H          0.92421000       0.51929000       0.17397000
   223  H          0.42421000       0.98071000       0.82603000
   224  H          0.07579000       0.01929000       0.32603000
   225  H          0.36169000       0.64298000       0.49333000
   226  H          0.13831000       0.35702000       0.99333000
   227  H          0.63831000       0.14298000       0.00667000
   228  H          0.86169000       0.85702000       0.50667000
   229  H          0.63831000       0.35702000       0.50667000
   230  H          0.86169000       0.64298000       0.00667000
   231  H          0.36169000       0.85702000       0.99333000
   232  H          0.13831000       0.14298000       0.49333000
   233  H          0.50451000       0.79069000       0.21023000
   234  H         -0.00451000       0.20931000       0.71023000
   235  H          0.49549000       0.29069000       0.28977000
   236  H          0.00451000       0.70931000       0.78977000
   237  H          0.49549000       0.20931000       0.78977000
   238  H          0.00451000       0.79069000       0.28977000
   239  H          0.50451000       0.70931000       0.71023000
   240  H         -0.00451000       0.29069000       0.21023000
   241  H          0.61971000       0.71687000       0.41563000
   242  H          0.88029000       0.28313000       0.91563000
   243  H          0.38029000       0.21687000       0.08437000
   244  H          0.11971000       0.78313000       0.58437000
   245  H          0.38029000       0.28313000       0.58437000
   246  H          0.11971000       0.71687000       0.08437000
   247  H          0.61971000       0.78313000       0.91563000
   248  H          0.88029000       0.21687000       0.41563000
   249  H          0.36731000       0.85348000       0.44893000
   250  H          0.13269000       0.14652000       0.94893000
   251  H          0.63269000       0.35348000       0.05107000
   252  H          0.86731000       0.64652000       0.55107000
   253  H          0.63269000       0.14652000       0.55107000
   254  H          0.86731000       0.85348000       0.05107000
   255  H          0.36731000       0.64652000       0.94893000
   256  H          0.13269000       0.35348000       0.44893000
   257  H          0.60769000       0.68448000       0.18463000
   258  H          0.89231000       0.31552000       0.68463000
   259  H          0.39231000       0.18448000       0.31537000
   260  H          0.10769000       0.81552000       0.81537000
   261  H          0.39231000       0.31552000       0.81537000
   262  H          0.10769000       0.68448000       0.31537000
   263  H          0.60769000       0.81552000       0.68463000
   264  H          0.89231000       0.18448000       0.18463000
