data_WIRMOZ
_symmetry_space_group_name_H-M    'P1'
_symmetry_Int_Tables_number       1
loop_
_symmetry_equiv_pos_site_id
_symmetry_equiv_pos_as_xyz
1 x,y,z
_cell_length_a                   11.8043
_cell_length_b                   11.3923
_cell_length_c                   16.2564
_cell_angle_alpha                90.0
_cell_angle_beta                 90.0
_cell_angle_gamma                90.0
loop_
_atom_site_label
_atom_site_type_symbol
_atom_site_fract_x
_atom_site_fract_y
_atom_site_fract_z
     1  S          0.72554600       0.01943600       0.62902400
     2  S          0.77445400       0.98056400       0.12902400
     3  S          0.22554600       0.48056400       0.37097600
     4  S          0.27445400       0.51943600       0.87097600
     5  S          0.27445400       0.98056400       0.37097600
     6  S          0.22554600       0.01943600       0.87097600
     7  S          0.77445400       0.51943600       0.62902400
     8  S          0.72554600       0.48056400       0.12902400
     9  O          0.83862000       0.05082000       0.60361000
    10  O          0.66138000       0.94918000       0.10361000
    11  O          0.33862000       0.44918000       0.39639000
    12  O          0.16138000       0.55082000       0.89639000
    13  O          0.16138000       0.94918000       0.39639000
    14  O          0.33862000       0.05082000       0.89639000
    15  O          0.66138000       0.55082000       0.60361000
    16  O          0.83862000       0.44918000       0.10361000
    17  O          0.72512000       0.93198000       0.69242000
    18  O          0.77488000       0.06802000       0.19242000
    19  O          0.22512000       0.56802000       0.30758000
    20  O          0.27488000       0.43198000       0.80758000
    21  O          0.27488000       0.06802000       0.30758000
    22  O          0.22512000       0.93198000       0.80758000
    23  O          0.77488000       0.43198000       0.69242000
    24  O          0.72512000       0.56802000       0.19242000
    25  O          0.65902000       0.12113000       0.64972000
    26  O          0.84098000       0.87887000       0.14972000
    27  O          0.15902000       0.37887000       0.35028000
    28  O          0.34098000       0.62113000       0.85028000
    29  O          0.34098000       0.87887000       0.35028000
    30  O          0.15902000       0.12113000       0.85028000
    31  O          0.84098000       0.62113000       0.64972000
    32  O          0.65902000       0.37887000       0.14972000
    33  O          0.38272000       0.67798000       0.10491000
    34  O          0.11728000       0.32202000       0.60491000
    35  O          0.88272000       0.82202000       0.89509000
    36  O          0.61728000       0.17798000       0.39509000
    37  O          0.61728000       0.32202000       0.89509000
    38  O          0.88272000       0.67798000       0.39509000
    39  O          0.11728000       0.17798000       0.10491000
    40  O          0.38272000       0.82202000       0.60491000
    41  N          0.68092000       0.80098000       0.43031000
    42  N          0.81908000       0.19902000       0.93031000
    43  N          0.18092000       0.69902000       0.56969000
    44  N          0.31908000       0.30098000       0.06969000
    45  N          0.31908000       0.19902000       0.56969000
    46  N          0.18092000       0.80098000       0.06969000
    47  N          0.81908000       0.30098000       0.43031000
    48  N          0.68092000       0.69902000       0.93031000
    49  N          0.51602000       0.73858000       0.30731000
    50  N          0.98398000       0.26142000       0.80731000
    51  N          0.01602000       0.76142000       0.69269000
    52  N          0.48398000       0.23858000       0.19269000
    53  N          0.48398000       0.26142000       0.69269000
    54  N          0.01602000       0.73858000       0.19269000
    55  N          0.98398000       0.23858000       0.30731000
    56  N          0.51602000       0.76142000       0.80731000
    57  C          0.65763000       0.95707000       0.54142000
    58  C          0.84237000       0.04293000       0.04142000
    59  C          0.15763000       0.54293000       0.45858000
    60  C          0.34237000       0.45707000       0.95858000
    61  C          0.34237000       0.04293000       0.45858000
    62  C          0.15763000       0.95707000       0.95858000
    63  C          0.84237000       0.45707000       0.54142000
    64  C          0.65763000       0.54293000       0.04142000
    65  C          0.73002000       0.86107000       0.50262000
    66  C          0.76998000       0.13893000       0.00262000
    67  C          0.23002000       0.63893000       0.49738000
    68  C          0.26998000       0.36107000      -0.00262000
    69  C          0.26998000       0.13893000       0.49738000
    70  C          0.23002000       0.86107000      -0.00262000
    71  C          0.76998000       0.36107000       0.50262000
    72  C          0.73002000       0.63893000       0.00262000
    73  C          0.65092000       0.88158000       0.36352000
    74  C          0.84908000       0.11842000       0.86352000
    75  C          0.15092000       0.61842000       0.63648000
    76  C          0.34908000       0.38158000       0.13648000
    77  C          0.34908000       0.11842000       0.63648000
    78  C          0.15092000       0.88158000       0.13648000
    79  C          0.84908000       0.38158000       0.36352000
    80  C          0.65092000       0.61842000       0.86352000
    81  C          0.61522000       0.81458000       0.28762000
    82  C          0.88478000       0.18542000       0.78762000
    83  C          0.11522000       0.68542000       0.71238000
    84  C          0.38478000       0.31458000       0.21238000
    85  C          0.38478000       0.18542000       0.71238000
    86  C          0.11522000       0.81458000       0.21238000
    87  C          0.88478000       0.31458000       0.28762000
    88  C          0.61522000       0.68542000       0.78762000
    89  C          0.54623000       0.65817000       0.37672000
    90  C          0.95377000       0.34183000       0.87672000
    91  C          0.04623000       0.84183000       0.62328000
    92  C          0.45377000       0.15817000       0.12328000
    93  C          0.45377000       0.34183000       0.62328000
    94  C          0.04623000       0.65817000       0.12328000
    95  C          0.95377000       0.15817000       0.37672000
    96  C          0.54623000       0.84183000       0.87672000
    97  C          0.58252000       0.72868000       0.45092000
    98  C          0.91748000       0.27132000       0.95092000
    99  C          0.08252000       0.77132000       0.54908000
   100  C          0.41748000       0.22868000       0.04908000
   101  C          0.41748000       0.27132000       0.54908000
   102  C          0.08252000       0.72868000       0.04908000
   103  C          0.91748000       0.22868000       0.45092000
   104  C          0.58252000       0.77132000       0.95092000
   105  C          0.47132000       0.67078000       0.23522000
   106  C          0.02868000       0.32922000       0.73522000
   107  C          0.97132000       0.82922000       0.76478000
   108  C          0.52868000       0.17078000       0.26478000
   109  C          0.52868000       0.32922000       0.76478000
   110  C          0.97132000       0.67078000       0.26478000
   111  C          0.02868000       0.17078000       0.23522000
   112  C          0.47132000       0.82922000       0.73522000
   113  C          0.43913000       0.74857000       0.16412000
   114  C          0.06087000       0.25143000       0.66412000
   115  C          0.93913000       0.75143000       0.83588000
   116  C          0.56087000       0.24857000       0.33588000
   117  C          0.56087000       0.25143000       0.83588000
   118  C          0.93913000       0.74857000       0.33588000
   119  C          0.06087000       0.24857000       0.16412000
   120  C          0.43913000       0.75143000       0.66412000
   121  H          0.58513000       0.92447000       0.55763170
   122  H          0.91487000       0.07553000       0.05763170
   123  H          0.08513000       0.57553000       0.44236830
   124  H          0.41487000       0.42447000       0.94236830
   125  H          0.41487000       0.07553000       0.44236830
   126  H          0.08513000       0.92447000       0.94236830
   127  H          0.91487000       0.42447000       0.55763170
   128  H          0.58513000       0.57553000       0.05763170
   129  H          0.64363000       0.01823000       0.50104170
   130  H          0.85637000       0.98177000       0.00104170
   131  H          0.14363000       0.48177000       0.49895830
   132  H          0.35637000       0.51823000      -0.00104170
   133  H          0.35637000       0.98177000       0.49895830
   134  H          0.14363000       0.01823000      -0.00104170
   135  H          0.85637000       0.51823000       0.50104170
   136  H          0.64363000       0.48177000       0.00104170
   137  H          0.80182000       0.89527000       0.48637170
   138  H          0.69818000       0.10473000       0.98637170
   139  H          0.30182000       0.60473000       0.51362830
   140  H          0.19818000       0.39527000       0.01362830
   141  H          0.19818000       0.10473000       0.51362830
   142  H          0.30182000       0.89527000       0.01362830
   143  H          0.69818000       0.39527000       0.48637170
   144  H          0.80182000       0.60473000       0.98637170
   145  H          0.74582000       0.80237000       0.54432170
   146  H          0.75418000       0.19763000       0.04432170
   147  H          0.24582000       0.69763000       0.45567830
   148  H          0.25418000       0.30237000       0.95567830
   149  H          0.25418000       0.19763000       0.45567830
   150  H          0.24582000       0.80237000       0.95567830
   151  H          0.75418000       0.30237000       0.54432170
   152  H          0.74582000       0.69763000       0.04432170
   153  H          0.71562000       0.93068000       0.35049160
   154  H          0.78438000       0.06932000       0.85049160
   155  H          0.21562000       0.56932000       0.64950840
   156  H          0.28438000       0.43068000       0.14950840
   157  H          0.28438000       0.06932000       0.64950840
   158  H          0.21562000       0.93068000       0.14950840
   159  H          0.78438000       0.43068000       0.35049160
   160  H          0.71562000       0.56932000       0.85049160
   161  H          0.58952000       0.93218000       0.38117160
   162  H          0.91048000       0.06782000       0.88117160
   163  H          0.08952000       0.56782000       0.61882840
   164  H          0.41048000       0.43218000       0.11882840
   165  H          0.41048000       0.06782000       0.61882840
   166  H          0.08952000       0.93218000       0.11882840
   167  H          0.91048000       0.43218000       0.38117160
   168  H          0.58952000       0.56782000       0.88117160
   169  H          0.59522000       0.86928000       0.24428170
   170  H          0.90478000       0.13072000       0.74428170
   171  H          0.09522000       0.63072000       0.75571830
   172  H          0.40478000       0.36928000       0.25571830
   173  H          0.40478000       0.13072000       0.75571830
   174  H          0.09522000       0.86928000       0.25571830
   175  H          0.90478000       0.36928000       0.24428170
   176  H          0.59522000       0.63072000       0.74428170
   177  H          0.67762000       0.76648000       0.26834170
   178  H          0.82238000       0.23352000       0.76834170
   179  H          0.17762000       0.73352000       0.73165830
   180  H          0.32238000       0.26648000       0.23165830
   181  H          0.32238000       0.23352000       0.73165830
   182  H          0.17762000       0.76648000       0.23165830
   183  H          0.82238000       0.26648000       0.26834170
   184  H          0.67762000       0.73352000       0.76834170
   185  H          0.46320000       0.78580000       0.32120000
   186  H          0.03680000       0.21420000       0.82120000
   187  H          0.96320000       0.71420000       0.67880000
   188  H          0.53680000       0.28580000       0.17880000
   189  H          0.53680000       0.21420000       0.67880000
   190  H          0.96320000       0.78580000       0.17880000
   191  H          0.03680000       0.28580000       0.32120000
   192  H          0.46320000       0.71420000       0.82120000
   193  H          0.60733000       0.60657000       0.35993160
   194  H          0.89267000       0.39343000       0.85993160
   195  H          0.10733000       0.89343000       0.64006840
   196  H          0.39267000       0.10657000       0.14006840
   197  H          0.39267000       0.39343000       0.64006840
   198  H          0.10733000       0.60657000       0.14006840
   199  H          0.89267000       0.10657000       0.35993160
   200  H          0.60733000       0.89343000       0.85993160
   201  H          0.48133000       0.60997000       0.39085160
   202  H          0.01867000       0.39003000       0.89085160
   203  H          0.98133000       0.89003000       0.60914840
   204  H          0.51867000       0.10997000       0.10914840
   205  H          0.51867000       0.39003000       0.60914840
   206  H          0.98133000       0.60997000       0.10914840
   207  H          0.01867000       0.10997000       0.39085160
   208  H          0.48133000       0.89003000       0.89085160
   209  H          0.52062000       0.77848000       0.46883170
   210  H          0.97938000       0.22152000       0.96883170
   211  H          0.02062000       0.72152000       0.53116830
   212  H          0.47938000       0.27848000       0.03116830
   213  H          0.47938000       0.22152000       0.53116830
   214  H          0.02062000       0.77848000       0.03116830
   215  H          0.97938000       0.27848000       0.46883170
   216  H          0.52062000       0.72152000       0.96883170
   217  H          0.60162000       0.67598000       0.49573170
   218  H          0.89838000       0.32402000      -0.00426830
   219  H          0.10162000       0.82402000       0.50426830
   220  H          0.39838000       0.17598000       0.00426830
   221  H          0.39838000       0.32402000       0.50426830
   222  H          0.10162000       0.67598000       0.00426830
   223  H          0.89838000       0.17598000       0.49573170
   224  H          0.60162000       0.82402000      -0.00426830
   225  H          0.40532000       0.62628000       0.25238160
   226  H          0.09468000       0.37372000       0.75238160
   227  H          0.90532000       0.87372000       0.74761840
   228  H          0.59468000       0.12628000       0.24761840
   229  H          0.59468000       0.37372000       0.74761840
   230  H          0.90532000       0.62628000       0.24761840
   231  H          0.09468000       0.12628000       0.25238160
   232  H          0.40532000       0.87372000       0.75238160
   233  H          0.52852000       0.61538000       0.21713160
   234  H          0.97148000       0.38462000       0.71713160
   235  H          0.02852000       0.88462000       0.78286840
   236  H          0.47148000       0.11538000       0.28286840
   237  H          0.47148000       0.38462000       0.78286840
   238  H          0.02852000       0.61538000       0.28286840
   239  H          0.97148000       0.11538000       0.21713160
   240  H          0.52852000       0.88462000       0.71713160
   241  H          0.38953000       0.81097000       0.18279180
   242  H          0.11047000       0.18903000       0.68279180
   243  H          0.88953000       0.68903000       0.81720820
   244  H          0.61047000       0.31097000       0.31720820
   245  H          0.61047000       0.18903000       0.81720820
   246  H          0.88953000       0.81097000       0.31720820
   247  H          0.11047000       0.31097000       0.18279180
   248  H          0.38953000       0.68903000       0.68279180
   249  H          0.50633000       0.78367000       0.14019180
   250  H         -0.00633000       0.21633000       0.64019180
   251  H          0.00633000       0.71633000       0.85980820
   252  H          0.49367000       0.28367000       0.35980820
   253  H          0.49367000       0.21633000       0.85980820
   254  H          0.00633000       0.78367000       0.35980820
   255  H         -0.00633000       0.28367000       0.14019180
   256  H          0.50633000       0.71633000       0.64019180
   257  H          0.32110000       0.70680000       0.09420000
   258  H          0.17890000       0.29320000       0.59420000
   259  H          0.82110000       0.79320000       0.90580000
   260  H          0.67890000       0.20680000       0.40580000
   261  H          0.67890000       0.29320000       0.90580000
   262  H          0.82110000       0.70680000       0.40580000
   263  H          0.17890000       0.20680000       0.09420000
   264  H          0.32110000       0.79320000       0.59420000
