data_WISNAN05
_symmetry_space_group_name_H-M    'P1'
_symmetry_Int_Tables_number       1
loop_
_symmetry_equiv_pos_site_id
_symmetry_equiv_pos_as_xyz
1 x,y,z
_cell_length_a                   7.5688
_cell_length_b                   9.8318
_cell_length_c                   10.2669
_cell_angle_alpha                63.95411
_cell_angle_beta                 71.70012
_cell_angle_gamma                75.52613
loop_
_atom_site_label
_atom_site_type_symbol
_atom_site_fract_x
_atom_site_fract_y
_atom_site_fract_z
     1  N          0.21876000       0.72344000       0.09754000
     2  N          0.78124000       0.27656000       0.90246000
     3  H          0.20980000       0.78000000       0.00730000
     4  H          0.79020000       0.22000000      -0.00730000
     5  N          0.31546000       0.26794000       0.83424000
     6  N          0.68454000       0.73206000       0.16576000
     7  H          0.32710000       0.21330000       0.92410000
     8  H          0.67290000       0.78670000       0.07590000
     9  C          0.29628000       0.57786000       0.13305000
    10  C          0.70372000       0.42214000       0.86695000
    11  H          0.33680000       0.53830000       0.05960000
    12  H          0.66320000       0.46170000       0.94040000
    13  C          0.31798000       0.48436000       0.27525000
    14  C          0.68202000       0.51564000       0.72475000
    15  H          0.37280000       0.38330000       0.29690000
    16  H          0.62720000       0.61670000       0.70310000
    17  C          0.25686000       0.54235000       0.38605000
    18  C          0.74314000       0.45765000       0.61395000
    19  C          0.17437000       0.69395000       0.34485000
    20  C          0.82563000       0.30605000       0.65515000
    21  H          0.13130000       0.73690000       0.41560000
    22  H          0.86870000       0.26310000       0.58440000
    23  C          0.15548000       0.78075000       0.20205000
    24  C          0.84452000       0.21925000       0.79795000
    25  H          0.09760000       0.88110000       0.17760000
    26  H          0.90240000       0.11890000       0.82240000
    27  C          0.38627000       0.21235000       0.72765000
    28  C          0.61373000       0.78765000       0.27235000
    29  H          0.44870000       0.11320000       0.75230000
    30  H          0.55130000       0.88680000       0.24770000
    31  C          0.36967000       0.29635000       0.58305000
    32  C          0.63033000       0.70365000       0.41695000
    33  H          0.41990000       0.25330000       0.51230000
    34  H          0.58010000       0.74670000       0.48770000
    35  C          0.27766000       0.44595000       0.54164000
    36  C          0.72234000       0.55405000       0.45836000
    37  C          0.20267000       0.50116000       0.65545000
    38  C          0.79733000       0.49884000       0.34455000
    39  H          0.13700000       0.59890000       0.63480000
    40  H          0.86300000       0.40110000       0.36520000
    41  C          0.22618000       0.41095000       0.79705000
    42  C          0.77382000       0.58905000       0.20295000
    43  H          0.17800000       0.45070000       0.87020000
    44  H          0.82200000       0.54930000       0.12980000
    45  C          0.18956000       0.02145000       0.45815000
    46  C          0.81044000       0.97855000       0.54185000
    47  H          0.31520000       0.03530000       0.43010000
    48  H          0.68480000       0.96470000       0.56990000
    49  C          0.08346000       0.08115000       0.35034000
    50  C          0.91654000       0.91885000       0.64966000
    51  C          0.10586000       0.94055000       0.60844000
    52  C          0.89414000       0.05945000       0.39156000
    53  C          0.17097000       0.17895000       0.19315000
    54  C          0.82903000       0.82105000       0.80685000
    55  C          0.22227000       0.88105000       0.72374000
    56  C          0.77773000       0.11895000       0.27626000
    57  O          0.30055000       0.10614000       0.11813000
    58  O          0.69945000       0.89386000       0.88187000
    59  O          0.12026000       0.31614000       0.14334000
    60  O          0.87974000       0.68386000       0.85666000
    61  O          0.12825000       0.88826000       0.84923000
    62  O          0.87175000       0.11174000       0.15077000
    63  O          0.39025000       0.83526000       0.69354000
    64  O          0.60975000       0.16474000       0.30646000
