data_WISNAN
_symmetry_space_group_name_H-M    'P1'
_symmetry_Int_Tables_number       1
loop_
_symmetry_equiv_pos_site_id
_symmetry_equiv_pos_as_xyz
1 x,y,z
_cell_length_a                   7.39743
_cell_length_b                   9.63524
_cell_length_c                   10.16883
_cell_angle_alpha                64.8722
_cell_angle_beta                 72.3752
_cell_angle_gamma                76.6122
loop_
_atom_site_label
_atom_site_type_symbol
_atom_site_fract_x
_atom_site_fract_y
_atom_site_fract_z
     1  O          0.89461120       0.33319110       0.69494100
     2  O          0.10538880       0.66680890       0.30505900
     3  O          0.62864130       0.39029100       0.85042900
     4  O          0.37135870       0.60970900       0.14957100
     5  O          0.37571140       0.18225100       0.85695100
     6  O          0.62428860       0.81774900       0.14304900
     7  O          0.19766120       0.39660100       0.88158900
     8  O          0.80233880       0.60339900       0.11841100
     9  C          0.60774170       0.44064130       0.60813130
    10  C          0.39225830       0.55935870       0.39186870
    11  C          0.41449170       0.41918130       0.64906120
    12  C          0.58550830       0.58081870       0.35093880
    13  C          0.69283170       0.52084140       0.45901130
    14  C          0.30716830       0.47915860       0.54098870
    15  C          0.72470170       0.38134130       0.72521130
    16  C          0.27529830       0.61865870       0.27478870
    17  C          0.32697170       0.32045140       0.80765130
    18  C          0.67302830       0.67954860       0.19234870
    19  H          0.18290000       0.34450000       0.97370000
    20  H          0.81710000       0.65550000       0.02630000
    21  H          0.82410000       0.53470000       0.43090000
    22  H          0.17590000       0.46530000       0.56910000
    23  N          0.71608140       0.22555120       0.09709110
    24  N          0.28391860       0.77444880       0.90290890
    25  C          0.64796190       0.28313150       0.20399140
    26  C          0.35203810       0.71686850       0.79600860
    27  C          0.66643180       0.19471140       0.34885140
    28  C          0.33356820       0.80528860       0.65114860
    29  C          0.75572160       0.04318140       0.38655130
    30  C          0.24427840       0.95681860       0.61344870
    31  C          0.82308180       0.98604850       0.27304140
    32  C          0.17691820       0.01395150       0.72695860
    33  C          0.79949180       0.08063150       0.13010140
    34  C          0.20050820       0.91936850       0.86989860
    35  N          0.81740150       0.76661880       0.83499110
    36  N          0.18259850       0.23338120       0.16500890
    37  C          0.89003170       0.71159860       0.72634130
    38  C          0.10996830       0.28840140       0.27365870
    39  C          0.87378170       0.79667860       0.57999130
    40  C          0.12621830       0.20332140       0.42000870
    41  C          0.77721160       0.94578860       0.54222130
    42  C          0.22278840       0.05421140       0.45777870
    43  C          0.70016180       0.00166150       0.65650130
    44  C          0.29983820      -0.00166150       0.34349870
    45  C          0.72364180       0.90934850       0.79933140
    46  C          0.27635820       0.09065150       0.20066860
    47  H          0.69230000       0.30620000       0.97220000
    48  H          0.30770000       0.69380000       0.02780000
    49  H          0.58620000       0.38590000       0.18010000
    50  H          0.41380000       0.61410000       0.81990000
    51  H          0.61790000       0.23760000       0.42320000
    52  H          0.38210000       0.76240000       0.57680000
    53  H          0.88450000       0.88340000       0.29340000
    54  H          0.11550000       0.11660000       0.70660000
    55  H          0.84420000       0.04070000       0.05360000
    56  H          0.15580000       0.95930000       0.94640000
    57  H          0.95550000       0.60990000       0.75050000
    58  H          0.04450000       0.39010000       0.24950000
    59  H          0.92810000       0.75360000       0.50610000
    60  H          0.07190000       0.24640000       0.49390000
    61  H          0.63220000       0.10230000       0.63630000
    62  H          0.36780000       0.89770000       0.36370000
    63  H          0.67070000       0.94920000       0.87570000
    64  H          0.32930000       0.05080000       0.12430000
