data_WISNAN04
_symmetry_space_group_name_H-M    'P1'
_symmetry_Int_Tables_number       1
loop_
_symmetry_equiv_pos_site_id
_symmetry_equiv_pos_as_xyz
1 x,y,z
_cell_length_a                   7.3572
_cell_length_b                   9.5873
_cell_length_c                   10.1473
_cell_angle_alpha                65.2564
_cell_angle_beta                 72.6874
_cell_angle_gamma                77.0524
loop_
_atom_site_label
_atom_site_type_symbol
_atom_site_fract_x
_atom_site_fract_y
_atom_site_fract_z
     1  C          0.58628180       0.58045140       0.85123870
     2  C          0.41371820       0.41954860       0.14876130
     3  C          0.67364180       0.67962150       0.69270860
     4  C          0.32635820       0.32037850       0.30729140
     5  O          0.62539130       0.81828100       0.64336900
     6  O          0.37460870       0.18171900       0.35663100
     7  O          0.80279120       0.60285100       0.61821900
     8  O          0.19720880       0.39714900       0.38178100
     9  C          0.39158180       0.55949140       0.89172860
    10  C          0.60841820       0.44050860       0.10827140
    11  C          0.27494180       0.61849140       0.77409860
    12  C          0.72505820       0.38150860       0.22590140
    13  O          0.10389130       0.66758100       0.80440900
    14  O          0.89610870       0.33241900       0.19559100
    15  O          0.37066130       0.60893100       0.64928100
    16  O          0.62933870       0.39106900       0.35071900
    17  H          0.82030000       0.66620000       0.50980000
    18  H          0.17970000       0.33380000       0.49020000
    19  C          0.69346190       0.52064140       0.95955860
    20  C          0.30653810       0.47935860       0.04044140
    21  H          0.82620000       0.53451600       0.93328400
    22  H          0.17380000       0.46548400       0.06671600
    23  N          0.28515150       0.77398120       0.40177880
    24  N          0.71484850       0.22601880       0.59822120
    25  H          0.30930000       0.70220000       0.51880000
    26  H          0.69070000       0.29780000       0.48120000
    27  C          0.35504180       0.71648150       0.29408860
    28  C          0.64495820       0.28351850       0.70591140
    29  H          0.42120000       0.61351700       0.31938400
    30  H          0.57880000       0.38648300       0.68061600
    31  C          0.33640180       0.80494150       0.14965850
    32  C          0.66359820       0.19505850       0.85034150
    33  H          0.39120000       0.75561800       0.07648300
    34  H          0.60880000       0.24438200       0.92351700
    35  C          0.24500180       0.95646150       0.11302860
    36  C          0.75499820       0.04353850       0.88697140
    37  C          0.17579180       0.01331150       0.22736860
    38  C          0.82420820       0.98668850       0.77263140
    39  H          0.11320000       0.11281800       0.21068400
    40  H          0.88680000       0.88718200       0.78931600
    41  C          0.19959180       0.91909150       0.36973860
    42  C          0.80040820       0.08090850       0.63026140
    43  H          0.15920000       0.95511600       0.45218400
    44  H          0.84080000       0.04488400       0.54781600
    45  C          0.27741180       0.09086150       0.69980860
    46  C          0.72258820       0.90913850       0.30019140
    47  H          0.32820000       0.05411600       0.61838400
    48  H          0.67180000       0.94588400       0.38161600
    49  C          0.30112180      -0.00133850       0.84250860
    50  C          0.69887820       0.00133850       0.15749140
    51  H          0.37620000       0.89991700       0.85548500
    52  H          0.62380000       0.10008300       0.14451500
    53  C          0.22327180       0.05401150       0.95742860
    54  C          0.77672820       0.94598850       0.04257140
    55  C          0.12511180       0.20308150       0.92057860
    56  C          0.87488820       0.79691850       0.07942140
    57  H          0.06520000       0.24871600      -0.00731500
    58  H          0.93480000       0.75128400       0.00731500
    59  C          0.10877180       0.28843150       0.77417860
    60  C          0.89122820       0.71156850       0.22582140
    61  H          0.03981900       0.39251600       0.74698500
    62  H          0.96018100       0.60748400       0.25301500
    63  N          0.18216150       0.23362130       0.66484880
    64  N          0.81783850       0.76637870       0.33515120
