data_WIVDUA02
_symmetry_space_group_name_H-M    'P1'
_symmetry_Int_Tables_number       1
loop_
_symmetry_equiv_pos_site_id
_symmetry_equiv_pos_as_xyz
1 x,y,z
_cell_length_a                   12.3641
_cell_length_b                   3.92205
_cell_length_c                   17.3952
_cell_angle_alpha                90.0
_cell_angle_beta                 107.8284
_cell_angle_gamma                90.0
loop_
_atom_site_label
_atom_site_type_symbol
_atom_site_fract_x
_atom_site_fract_y
_atom_site_fract_z
     1  Br         0.64800400       0.17042000       0.67608300
     2  Br         0.85199600       0.67042000       0.82391700
     3  Br         0.35199600       0.82958000       0.32391700
     4  Br         0.14800400       0.32958000       0.17608300
     5  O          0.73233000       0.52810000       0.55102000
     6  O          0.76767000       0.02810000       0.94898000
     7  O          0.26767000       0.47190000       0.44898000
     8  O          0.23233000      -0.02810000       0.05102000
     9  O          0.38943000       0.19310000       0.59012000
    10  O          0.11057000       0.69310000       0.90988000
    11  O          0.61057000       0.80690000       0.40988000
    12  O          0.88943000       0.30690000       0.09012000
    13  C          0.56623000       0.35420000       0.57572000
    14  C          0.93377000       0.85420000       0.92428000
    15  C          0.43377000       0.64580000       0.42428000
    16  C          0.06623000       0.14580000       0.07572000
    17  C          0.44393000       0.33220000       0.55102000
    18  C          0.05607000       0.83220000       0.94898000
    19  C          0.55607000       0.66780000       0.44898000
    20  C          0.94393000       0.16780000       0.05102000
    21  C          0.62094000       0.51120000       0.52943000
    22  C          0.87906000       0.01120000       0.97057000
    23  C          0.37906000       0.48880000       0.47057000
    24  C          0.12094000      -0.01120000       0.02943000
    25  H          0.75150000       0.58200000       0.52030000
    26  H          0.74850000       0.08200000       0.97970000
    27  H          0.24850000       0.41800000       0.47970000
    28  H          0.25150000       0.91800000       0.02030000
    29  H          0.24950000       0.42200000       0.48030000
    30  H          0.25050000       0.92200000       0.01970000
    31  H          0.75050000       0.57800000       0.51970000
    32  H          0.74950000       0.07800000       0.98030000
    33  N          0.89673000       0.86310000       0.50432000
    34  N          0.60327000       0.36310000      -0.00432000
    35  N          0.10327000       0.13690000       0.49568000
    36  N          0.39673000       0.63690000       0.00432000
    37  C          0.97034000       0.01420000       0.56903000
    38  C          0.52966000       0.51420000       0.93097000
    39  C          0.02966000      -0.01420000       0.43097000
    40  C          0.47034000       0.48580000       0.06903000
    41  C          0.92523000       0.84620000       0.43593000
    42  C          0.57477000       0.34620000       0.06407000
    43  C          0.07477000       0.15380000       0.56407000
    44  C          0.42523000       0.65380000       0.93593000
    45  C          0.85034000       0.68620000       0.36643000
    46  C          0.64966000       0.18620000       0.13357000
    47  C          0.14966000       0.31380000       0.63357000
    48  C          0.35034000       0.81380000       0.86643000
    49  C          0.87954000       0.67120000       0.29743000
    50  C          0.62046000       0.17120000       0.20257000
    51  C          0.12046000       0.32880000       0.70257000
    52  C          0.37954000       0.82880000       0.79743000
    53  C          0.98164000       0.81520000       0.29233000
    54  C          0.51836000       0.31520000       0.20767000
    55  C          0.01836000       0.18480000       0.70767000
    56  C          0.48164000       0.68480000       0.79233000
    57  C          0.94444000       0.03520000       0.64263000
    58  C          0.55556000       0.53520000       0.85737000
    59  C          0.05556000      -0.03520000       0.35737000
    60  C          0.44444000       0.46480000       0.14263000
    61  H          0.78140000       0.61200000       0.36630000
    62  H          0.71860000       0.11200000       0.13370000
    63  H          0.21860000       0.38800000       0.63370000
    64  H          0.28140000       0.88800000       0.86630000
    65  H          0.83950000       0.55200000       0.26140000
    66  H          0.66050000       0.05200000       0.23860000
    67  H          0.16050000       0.44800000       0.73860000
    68  H          0.33950000       0.94800000       0.76140000
    69  H         -0.00460000       0.82200000       0.24430000
    70  H          0.50460000       0.32200000       0.25570000
    71  H          0.00460000       0.17800000       0.75570000
    72  H          0.49540000       0.67800000       0.74430000
    73  H          0.88450000       0.93200000       0.65230000
    74  H          0.61550000       0.43200000       0.84770000
    75  H          0.11550000       0.06800000       0.34770000
    76  H          0.38450000       0.56800000       0.15230000
    77  H          0.21940000       0.39200000       0.63430000
    78  H          0.28060000       0.89200000       0.86570000
    79  H          0.78060000       0.60800000       0.36570000
    80  H          0.71940000       0.10800000       0.13430000
    81  H          0.16150000       0.45200000       0.73940000
    82  H          0.33850000       0.95200000       0.76060000
    83  H          0.83850000       0.54800000       0.26060000
    84  H          0.66150000       0.04800000       0.23940000
    85  H          0.00540000       0.18200000       0.75630000
    86  H          0.49460000       0.68200000       0.74370000
    87  H         -0.00540000       0.81800000       0.24370000
    88  H          0.50540000       0.31800000       0.25630000
    89  H          0.11650000       0.07200000       0.34830000
    90  H          0.38350000       0.57200000       0.15170000
    91  H          0.88350000       0.92800000       0.65170000
    92  H          0.61650000       0.42800000       0.84830000
