data_WIVDUA03
_symmetry_space_group_name_H-M    'P1'
_symmetry_Int_Tables_number       1
loop_
_symmetry_equiv_pos_site_id
_symmetry_equiv_pos_as_xyz
1 x,y,z
_cell_length_a                   12.2992
_cell_length_b                   4.81148
_cell_length_c                   15.1533
_cell_angle_alpha                90.0
_cell_angle_beta                 107.604217
_cell_angle_gamma                90.0
loop_
_atom_site_label
_atom_site_type_symbol
_atom_site_fract_x
_atom_site_fract_y
_atom_site_fract_z
     1  Br         0.56644400       0.04733110       0.67311400
     2  Br         0.43355600       0.54733110       0.82688600
     3  Br         0.43355600       0.95266890       0.32688600
     4  Br         0.56644400       0.45266890       0.17311400
     5  O          0.33532000       0.28977000       0.56962000
     6  O          0.66468000       0.78977000       0.93038000
     7  O          0.66468000       0.71023000       0.43038000
     8  O          0.33532000       0.21023000       0.06962000
     9  O          0.28382000       0.64598000       0.42542000
    10  O          0.71618000       0.14598000       0.07458000
    11  O          0.71618000       0.35402000       0.57458000
    12  O          0.28382000       0.85402000       0.92542000
    13  C          0.52623000       0.30098000       0.57453000
    14  C          0.47377000       0.80098000       0.92547000
    15  C          0.47377000       0.69902000       0.42547000
    16  C          0.52623000       0.19902000       0.07453000
    17  C          0.41703000       0.38349000       0.53843000
    18  C          0.58297000       0.88349000       0.96157000
    19  C          0.58297000       0.61651000       0.46157000
    20  C          0.41703000       0.11651000       0.03843000
    21  C          0.38443000       0.58629000       0.45893000
    22  C          0.61557000       0.08629000       0.04107000
    23  C          0.61557000       0.41371000       0.54107000
    24  C          0.38443000       0.91371000       0.95893000
    25  H          0.26850000       0.38112000       0.54340000
    26  H          0.73150000       0.88112000       0.95660000
    27  H          0.73150000       0.61888000       0.45660000
    28  H          0.26850000       0.11888000       0.04340000
    29  H          0.73250000       0.61912000       0.45740000
    30  H          0.26750000       0.11912000       0.04260000
    31  H          0.26750000       0.38088000       0.54260000
    32  H          0.73250000       0.88088000       0.95740000
    33  N          0.11622000       0.44057000       0.51862000
    34  N          0.88378000       0.94057000       0.98138000
    35  N          0.88378000       0.55943000       0.48138000
    36  N          0.11622000       0.05943000       0.01862000
    37  C          0.03793000       0.30268000       0.45273000
    38  C          0.96207000       0.80268000       0.04727000
    39  C          0.96207000       0.69732000       0.54727000
    40  C          0.03793000       0.19732000       0.95273000
    41  C          0.07084000       0.08969000       0.40133000
    42  C          0.92916000       0.58969000       0.09867000
    43  C          0.92916000       0.91031000       0.59867000
    44  C          0.07084000       0.41031000       0.90133000
    45  C         -0.00876000       0.95258900       0.33574000
    46  C          0.00876000       0.45258900       0.16426000
    47  C          0.00876000       0.04741100       0.66426000
    48  C         -0.00876000       0.54741100       0.83574000
    49  C          0.87544000       0.01011100       0.31584000
    50  C          0.12456000       0.51011100       0.18416000
    51  C          0.12456000      -0.01011100       0.68416000
    52  C          0.87544000       0.48988900       0.81584000
    53  C          0.83876000       0.21021000       0.36313000
    54  C          0.16124000       0.71021000       0.13687000
    55  C          0.16124000       0.78979000       0.63687000
    56  C          0.83876000       0.28979000       0.86313000
    57  C          0.91897000       0.36289000       0.43333000
    58  C          0.08103000       0.86289000       0.06667000
    59  C          0.08103000       0.63711000       0.56667000
    60  C          0.91897000       0.13711000       0.93333000
    61  H          0.14910000       0.04400000       0.41330000
    62  H          0.85090000       0.54400000       0.08670000
    63  H          0.85090000       0.95600000       0.58670000
    64  H          0.14910000       0.45600000       0.91330000
    65  H          0.01470000       0.81110000       0.30160000
    66  H         -0.01470000       0.31110000       0.19840000
    67  H         -0.01470000       0.18890000       0.69840000
    68  H          0.01470000       0.68890000       0.80160000
    69  H          0.82160000       0.90850000       0.26860000
    70  H          0.17840000       0.40850000       0.23140000
    71  H          0.17840000       0.09150000       0.73140000
    72  H          0.82160000       0.59150000       0.76860000
    73  H          0.75950000       0.24790000       0.34920000
    74  H          0.24050000       0.74790000       0.15080000
    75  H          0.24050000       0.75210000       0.65080000
    76  H          0.75950000       0.25210000       0.84920000
