data_WIVDUA
_symmetry_space_group_name_H-M    'P1'
_symmetry_Int_Tables_number       1
loop_
_symmetry_equiv_pos_site_id
_symmetry_equiv_pos_as_xyz
1 x,y,z
_cell_length_a                   12.4197
_cell_length_b                   3.92884
_cell_length_c                   17.4695
_cell_angle_alpha                90.0
_cell_angle_beta                 107.874
_cell_angle_gamma                90.0
loop_
_atom_site_label
_atom_site_type_symbol
_atom_site_fract_x
_atom_site_fract_y
_atom_site_fract_z
     1  Br         0.35200300       0.16988900       0.82396200
     2  Br         0.14799700       0.66988900       0.67603800
     3  Br         0.64799700       0.83011100       0.17603800
     4  Br         0.85200300       0.33011100       0.32396200
     5  O          0.61042000       0.19217000       0.91002000
     6  O          0.88958000       0.69217000       0.58998000
     7  O          0.38958000       0.80783000       0.08998000
     8  O          0.11042000       0.30783000       0.41002000
     9  O          0.26762000       0.52677000       0.94952000
    10  O          0.23238000       0.02677000       0.55048000
    11  O          0.73238000       0.47323000       0.05048000
    12  O          0.76762000      -0.02677000       0.44952000
    13  C          0.55653000       0.33158000       0.94912000
    14  C          0.94347000       0.83158000       0.55088000
    15  C          0.44347000       0.66842000       0.05088000
    16  C          0.05653000       0.16842000       0.44912000
    17  C          0.43383000       0.35598000       0.92442000
    18  C          0.06617000       0.85598000       0.57558000
    19  C          0.56617000       0.64402000       0.07558000
    20  C          0.93383000       0.14402000       0.42442000
    21  C          0.37823000       0.50699000       0.97092000
    22  C          0.12177000       0.00699000       0.52908000
    23  C          0.62177000       0.49301000       0.02908000
    24  C          0.87823000      -0.00699000       0.47092000
    25  H          0.24254800       0.63912000       0.97833000
    26  H          0.25745200       0.13912000       0.52167000
    27  H          0.75745200       0.36088000       0.02167000
    28  H          0.74254800       0.86088000       0.47833000
    29  N          0.10312000       0.86213000      -0.00428000
    30  N          0.39688000       0.36213000       0.50428000
    31  N          0.89688000       0.13787000       0.00428000
    32  N          0.60312000       0.63787000       0.49572000
    33  C          0.94447000      -0.03451000       0.14272000
    34  C          0.55553000       0.46549000       0.35728000
    35  C          0.05553000       0.03451000       0.85728000
    36  C          0.44447000       0.53451000       0.64272000
    37  C          0.01803000       0.81441000       0.20752000
    38  C          0.48197000       0.31441000       0.29248000
    39  C          0.98197000       0.18559000       0.79248000
    40  C          0.51803000       0.68559000       0.70752000
    41  C          0.12113000       0.67229000       0.20323000
    42  C          0.37887000       0.17229000       0.29677000
    43  C          0.87887000       0.32771000       0.79677000
    44  C          0.62113000       0.82771000       0.70323000
    45  C          0.14963000       0.68509000       0.13382000
    46  C          0.35037000       0.18509000       0.36618000
    47  C          0.85037000       0.31491000       0.86618000
    48  C          0.64963000       0.81491000       0.63382000
    49  C          0.07473000       0.84522000       0.06412000
    50  C          0.42527000       0.34522000       0.43588000
    51  C          0.92527000       0.15478000       0.93588000
    52  C          0.57473000       0.65478000       0.56412000
    53  C          0.03023000       0.01479000       0.93132000
    54  C          0.46977000       0.51479000       0.56868000
    55  C          0.96977000      -0.01479000       0.06868000
    56  C          0.53023000       0.48521000       0.43132000
    57  H          0.88096900       0.06310000       0.14522100
    58  H          0.61903100       0.56310000       0.35477900
    59  H          0.11903100       0.93690000       0.85477900
    60  H          0.38096900       0.43690000       0.64522100
    61  H          0.00363400       0.81370300       0.25332500
    62  H          0.49636600       0.31370300       0.24667500
    63  H         -0.00363400       0.18629700       0.74667500
    64  H          0.50363400       0.68629700       0.75332500
    65  H          0.16663800       0.55688000       0.24712700
    66  H          0.33336200       0.05688000       0.25287300
    67  H          0.83336200       0.44312000       0.75287300
    68  H          0.66663800       0.94312000       0.74712700
    69  H          0.22143800       0.59588000       0.12702500
    70  H          0.27856200       0.09588000       0.37297500
    71  H          0.77856200       0.40412000       0.87297500
    72  H          0.72143800       0.90412000       0.62702500
