data_WOTJOE02
_symmetry_space_group_name_H-M    'P1'
_symmetry_Int_Tables_number       1
loop_
_symmetry_equiv_pos_site_id
_symmetry_equiv_pos_as_xyz
1 x,y,z
_cell_length_a                   9.7365
_cell_length_b                   8.6342
_cell_length_c                   24.48013
_cell_angle_alpha                90.0
_cell_angle_beta                 97.114
_cell_angle_gamma                90.0
loop_
_atom_site_label
_atom_site_type_symbol
_atom_site_fract_x
_atom_site_fract_y
_atom_site_fract_z
     1  H          0.33230000       0.42540000       0.24651100
     2  H          0.66770000       0.92540000       0.25348900
     3  H          0.66770000       0.57460000       0.75348900
     4  H          0.33230000       0.07460000       0.74651100
     5  H          0.07430000       0.12540000       0.31351300
     6  H          0.92570000       0.62540000       0.18648700
     7  H          0.92570000       0.87460000       0.68648700
     8  H          0.07430000       0.37460000       0.81351300
     9  H          0.16630000       0.41240000       0.15691400
    10  H          0.83370000       0.91240000       0.34308600
    11  H          0.83370000       0.58760000       0.84308600
    12  H          0.16630000       0.08760000       0.65691400
    13  H          0.08230000       0.28040000       0.08881300
    14  H          0.91770000       0.78040000       0.41118700
    15  H          0.91770000       0.71960000       0.91118700
    16  H          0.08230000       0.21960000       0.58881300
    17  H          0.72670000       0.41840000       0.95978700
    18  H          0.27330000       0.91840000       0.54021300
    19  H          0.27330000       0.58160000       0.04021300
    20  H          0.72670000       0.08160000       0.45978700
    21  H          0.92660000       0.10150000       0.23101400
    22  H          0.07340000       0.60150000       0.26898600
    23  H          0.07340000       0.89850000       0.76898600
    24  H          0.92660000       0.39850000       0.73101400
    25  H          0.16030000       0.08140000       0.03351500
    26  H          0.83970000       0.58140000       0.46648500
    27  H          0.83970000       0.91860000       0.96648500
    28  H          0.16030000       0.41860000       0.53351500
    29  H          0.79470000       0.24740000       0.03141200
    30  H          0.20530000       0.74740000       0.46858800
    31  H          0.20530000       0.75260000       0.96858800
    32  H          0.79470000       0.25260000       0.53141200
    33  H          0.79760000       0.10050000       0.80458400
    34  H          0.20240000       0.60050000       0.69541600
    35  H          0.20240000       0.89950000       0.19541600
    36  H          0.79760000       0.39950000       0.30458400
    37  H          0.33840000       0.43350000       0.92028500
    38  H          0.66160000       0.93350000       0.57971500
    39  H          0.66160000       0.56650000       0.07971500
    40  H          0.33840000       0.06650000       0.42028500
    41  H          0.57460000       0.44140000       0.88028500
    42  H          0.42540000       0.94140000       0.61971500
    43  H          0.42540000       0.55860000       0.11971500
    44  H          0.57460000       0.05860000       0.38028500
    45  H          0.59860000       0.27040000       0.80388400
    46  H          0.40140000       0.77040000       0.69611600
    47  H          0.40140000       0.72960000       0.19611600
    48  H          0.59860000       0.22960000       0.30388400
    49  H          0.54770000       0.34740000       0.21111400
    50  H          0.45230000       0.84740000       0.28888600
    51  H          0.45230000       0.65260000       0.78888600
    52  H          0.54770000       0.15260000       0.71111400
    53  H          0.95760000       0.11640000       0.88728500
    54  H          0.04240000       0.61640000       0.61271500
    55  H          0.04240000       0.88360000       0.11271500
    56  H          0.95760000       0.38360000       0.38728500
    57  H          0.76170000       0.02040000       0.09481300
    58  H          0.23830000       0.52040000       0.40518700
    59  H          0.23830000       0.97960000       0.90518700
    60  H          0.76170000       0.47960000       0.59481300
    61  H          0.77670000       0.40840000       0.19561400
    62  H          0.22330000       0.90840000       0.30438600
    63  H          0.22330000       0.59160000       0.80438600
    64  H          0.77670000       0.09160000       0.69561400
    65  H          0.48650000       0.26150000       0.97318300
    66  H          0.51350000       0.76150000       0.52681700
    67  H          0.51350000       0.73850000       0.02681700
    68  H          0.48650000       0.23850000       0.47318300
    69  H          0.37750000       0.07060000       0.02701900
    70  H          0.62250000       0.57060000       0.47298100
    71  H          0.62250000       0.92940000       0.97298100
    72  H          0.37750000       0.42940000       0.52701900
    73  H          0.41950000       0.13960000       0.16941900
    74  H          0.58050000       0.63960000       0.33058100
    75  H          0.58050000       0.86040000       0.83058100
    76  H          0.41950000       0.36040000       0.66941900
    77  H          0.52760000       0.96360000       0.10911400
    78  H          0.47240000       0.46360000       0.39088600
    79  H          0.47240000       0.03640000       0.89088600
    80  H          0.52760000       0.53640000       0.60911400
    81  H          0.10130000       0.42940000       0.92378800
    82  H          0.89870000       0.92940000       0.57621200
    83  H          0.89870000       0.57060000       0.07621200
    84  H          0.10130000       0.07060000       0.42378800
    85  H          0.26540000       0.26850000       0.32291700
    86  H          0.73460000       0.76850000       0.17708300
    87  H          0.73460000       0.73150000       0.67708300
    88  H          0.26540000       0.23150000       0.82291700
    89  C          0.00623000       0.17214000       0.23437110
    90  C         -0.00623000       0.67214000       0.26562890
    91  C         -0.00623000       0.82786000       0.76562890
    92  C          0.00623000       0.32786000       0.73437110
    93  C          0.03233000       0.25523000       0.18851100
    94  C          0.96767000       0.75523000       0.31148900
    95  C          0.96767000       0.74477000       0.81148900
    96  C          0.03233000       0.24477000       0.68851100
    97  C          0.87636000       0.17584000       0.88698870
    98  C          0.12364000       0.67584000       0.61301130
    99  C          0.12364000       0.82416000       0.11301130
   100  C          0.87636000       0.32416000       0.38698870
   101  C          0.74077000       0.36255000       0.92878860
   102  C          0.25923000       0.86255000       0.57121140
   103  C          0.25923000       0.63745000       0.07121140
   104  C          0.74077000       0.13745000       0.42878860
   105  C          0.09774000       0.18035000       0.28296130
   106  C          0.90226000       0.68035000       0.21703870
   107  C          0.90226000       0.81965000       0.71703870
   108  C          0.09774000       0.31965000       0.78296130
   109  C          0.23923000       0.35555000       0.24047140
   110  C          0.76077000       0.85555000       0.25952860
   111  C          0.76077000       0.64445000       0.75952860
   112  C          0.23923000       0.14445000       0.74047140
   113  C          0.14913000       0.34964000       0.19213130
   114  C          0.85087000       0.84964000       0.30786870
   115  C          0.85087000       0.65036000       0.80786870
   116  C          0.14913000       0.15036000       0.69213130
   117  C          0.78707000       0.21234000       0.14197110
   118  C          0.21293000       0.71234000       0.35802890
   119  C          0.21293000       0.78766000       0.85802890
   120  C          0.78707000       0.28766000       0.64197110
   121  C          0.93527000       0.24293000       0.13653110
   122  C          0.06473000       0.74293000       0.36346890
   123  C          0.06473000       0.75707000       0.86346890
   124  C          0.93527000       0.25707000       0.63653110
   125  C          0.98317000       0.25624000       0.08739110
   126  C          0.01683000       0.75624000       0.41260890
   127  C          0.01683000       0.74376000       0.91260890
   128  C          0.98317000       0.24376000       0.58739110
   129  C          0.90217000       0.25274000       0.03354110
   130  C          0.09783000       0.75274000       0.46645890
   131  C          0.09783000       0.74726000       0.96645890
   132  C          0.90217000       0.24726000       0.53354110
   133  C          0.15914000       0.35444000       0.94534870
   134  C          0.84086000       0.85444000       0.55465130
   135  C          0.84086000       0.64556000       0.05465130
   136  C          0.15914000       0.14556000       0.44534870
   137  C          0.85497000       0.26584000       0.93294890
   138  C          0.14503000       0.76584000       0.56705110
   139  C          0.14503000       0.73416000       0.06705110
   140  C          0.85497000       0.23416000       0.43294890
   141  C          0.10243000       0.24973000       0.97972890
   142  C          0.89757000       0.74973000       0.52027110
   143  C          0.89757000       0.75027000       0.02027110
   144  C          0.10243000       0.25027000       0.47972890
   145  C          0.64726000       0.36706000       0.88109840
   146  C          0.35274000       0.86706000       0.61890160
   147  C          0.35274000       0.63294000       0.11890160
   148  C          0.64726000       0.13294000       0.38109840
   149  C          0.19144000       0.14675000       0.00886140
   150  C          0.80856000       0.64675000       0.49113860
   151  C          0.80856000       0.85325000       0.99113860
   152  C          0.19144000       0.35325000       0.50886140
   153  C          0.95237000       0.25503000       0.98480890
   154  C          0.04763000       0.75503000       0.51519110
   155  C          0.04763000       0.74497000       0.01519110
   156  C          0.95237000       0.24497000       0.48480890
   157  C          0.71707000       0.08434000       0.11807130
   158  C          0.28293000       0.58434000       0.38192870
   159  C          0.28293000       0.91566000       0.88192870
   160  C          0.71707000       0.41566000       0.61807130
   161  C          0.78186000       0.17975000       0.84002850
   162  C          0.21814000       0.67975000       0.65997150
   163  C          0.21814000       0.82025000       0.15997150
   164  C          0.78186000       0.32025000       0.34002850
   165  C          0.71787000       0.31194000       0.17419130
   166  C          0.28213000       0.81194000       0.32580870
   167  C          0.28213000       0.68806000       0.82580870
   168  C          0.71787000       0.18806000       0.67419130
   169  C          0.57946000       0.28285000       0.18066170
   170  C          0.42054000       0.78285000       0.31933830
   171  C          0.42054000       0.71715000       0.81933830
   172  C          0.57946000       0.21715000       0.68066170
   173  C          0.30004000       0.35966000       0.94283830
   174  C          0.69996000       0.85966000       0.55716170
   175  C          0.69996000       0.64034000       0.05716170
   176  C          0.30004000       0.14034000       0.44283830
   177  C          0.21384000       0.27024000       0.28551150
   178  C          0.78616000       0.77024000       0.21448850
   179  C          0.78616000       0.72976000       0.71448850
   180  C          0.21384000       0.22976000       0.78551150
   181  C          0.58076000       0.05445000       0.12590160
   182  C          0.41924000       0.55445000       0.37409840
   183  C          0.41924000       0.94555000       0.87409840
   184  C          0.58076000       0.44555000       0.62590160
   185  C          0.33214000       0.15396000       0.00638180
   186  C          0.66786000       0.65396000       0.49361820
   187  C          0.66786000       0.84604000       0.99361820
   188  C          0.33214000       0.34604000       0.50638180
   189  C          0.51226000       0.15536000       0.15665170
   190  C          0.48774000       0.65536000       0.34334830
   191  C          0.48774000       0.84464000       0.84334830
   192  C          0.51226000       0.34464000       0.65665170
   193  C          0.66816000       0.27496000       0.83720840
   194  C          0.33184000       0.77496000       0.66279160
   195  C          0.33184000       0.72504000       0.16279160
   196  C          0.66816000       0.22504000       0.33720840
   197  C          0.38544000       0.26007000       0.97353820
   198  C          0.61456000       0.76007000       0.52646180
   199  C          0.61456000       0.73993000       0.02646180
   200  C          0.38544000       0.23993000       0.47353820
