data_WOTJOE03
_symmetry_space_group_name_H-M    'P1'
_symmetry_Int_Tables_number       1
loop_
_symmetry_equiv_pos_site_id
_symmetry_equiv_pos_as_xyz
1 x,y,z
_cell_length_a                   6.2592
_cell_length_b                   22.1644
_cell_length_c                   7.3623
_cell_angle_alpha                90.0
_cell_angle_beta                 96.3494
_cell_angle_gamma                90.0
loop_
_atom_site_label
_atom_site_type_symbol
_atom_site_fract_x
_atom_site_fract_y
_atom_site_fract_z
     1  C          0.59955000       0.01499150       0.84534000
     2  C          0.40045000       0.51499150       0.15466000
     3  C          0.79425000       0.02427160       0.97774000
     4  C          0.20575000       0.52427160       0.02226000
     5  C          0.50575000       0.96056840       0.82204000
     6  C          0.49425000       0.46056840       0.17796000
     7  C          0.30765000       0.83750850       0.77464000
     8  C          0.69235000       0.33750850       0.22536000
     9  C          0.03305000       0.88369850       0.53544000
    10  C          0.96695000       0.38369850       0.46456000
    11  C          0.88064000       0.92910830       0.50335000
    12  C          0.11936000       0.42910830       0.49665000
    13  H          0.89970000       0.96540000       0.56650000
    14  H          0.10030000       0.46540000       0.43350000
    15  C          0.22765000       0.89184850       0.66844000
    16  C          0.77235000       0.39184850       0.33156000
    17  C          0.32265000       0.94639850       0.69114000
    18  C          0.67735000       0.44639850       0.30886000
    19  C          0.94815000       0.97893820       0.01485000
    20  C          0.05185000       0.47893820      -0.01485000
    21  H          0.93040000       0.94220000       0.95410000
    22  H          0.06960000       0.44220000       0.04590000
    23  C          0.51216000       0.81360830       0.75885000
    24  C          0.48784000       0.31360830       0.24115000
    25  H          0.60140000       0.83180000       0.68200000
    26  H          0.39860000       0.33180000       0.31800000
    27  C          0.69984000       0.92098000       0.37776000
    28  C          0.30016000       0.42098000       0.62224000
    29  H          0.59850000       0.95170000       0.35860000
    30  H          0.40150000       0.45170000       0.64140000
    31  C          0.51355000       0.06946140       0.74184000
    32  C          0.48645000       0.56946140       0.25816000
    33  C          0.12726000       0.98798000       0.14115000
    34  C          0.87274000       0.48798000       0.85885000
    35  H          0.22770000       0.95730000       0.16490000
    36  H          0.77230000       0.45730000       0.83510000
    37  C          0.30855000       0.09221160       0.76015000
    38  C          0.69145000       0.59221160       0.23985000
    39  H          0.22080000       0.07270000       0.83550000
    40  H          0.77920000       0.57270000       0.16450000
    41  C          0.63786000       0.09895180       0.62626000
    42  C          0.36214000       0.59895180       0.37374000
    43  H          0.77450000       0.08450000       0.61230000
    44  H          0.22550000       0.58450000       0.38770000
    45  C         -0.00127000       0.82944810       0.43865000
    46  C          0.00127000       0.32944810       0.56135000
    47  H          0.09680000       0.79800000       0.45930000
    48  H          0.90320000       0.29800000       0.54070000
    49  C          0.82817000       0.07892000       0.07066000
    50  C          0.17183000       0.57892000       0.92934000
    51  H          0.72890000       0.11000000       0.04800000
    52  H          0.27110000       0.61000000       0.95200000
    53  C          0.58077000       0.76262820       0.85846000
    54  C          0.41923000       0.26262820       0.14154000
    55  H          0.71650000       0.74680000       0.84790000
    56  H          0.28350000       0.24680000       0.15210000
    57  C          0.23536000       0.14389180       0.66596000
    58  C          0.76464000       0.64389180       0.33404000
    59  H          0.09980000       0.15910000       0.68080000
    60  H          0.90020000       0.65910000       0.31920000
    61  C          0.36088000       0.17259190       0.55156000
    62  C          0.63912000       0.67259190       0.44844000
    63  H          0.31030000       0.20710000       0.48880000
    64  H          0.68970000       0.70710000       0.51120000
    65  C          0.66983000       0.86768000       0.28105000
    66  C          0.33017000       0.36768000       0.71895000
    67  H          0.54980000       0.86240000       0.19610000
    68  H          0.45020000       0.36240000       0.80390000
    69  C          0.44928000       0.73498000       0.97317000
    70  C          0.55072000       0.23498000       0.02683000
    71  H          0.49550000       0.70080000       0.03930000
    72  H          0.50450000       0.20080000       0.96070000
    73  C          0.81912000       0.82258000       0.31206000
    74  C          0.18088000       0.32258000       0.68794000
    75  H          0.79980000       0.78670000       0.24690000
    76  H          0.20020000       0.28670000       0.75310000
    77  C          0.17737000       0.80878000       0.88726000
    78  C          0.82263000       0.30878000       0.11274000
    79  H          0.03930000       0.82340000       0.89530000
    80  H          0.96070000       0.32340000       0.10470000
    81  C          0.00808000       0.08763000       0.19646000
    82  C         -0.00808000       0.58763000       0.80354000
    83  H          0.02770000       0.12430000       0.25720000
    84  H          0.97230000       0.62430000       0.74280000
    85  C          0.24869000       0.75898000      -0.01222000
    86  C          0.75131000       0.25898000       0.01222000
    87  H          0.16040000       0.74130000       0.06640000
    88  H          0.83960000       0.24130000       0.93360000
    89  C          0.15667000       0.04242000       0.23145000
    90  C          0.84333000       0.54242000       0.76855000
    91  H          0.27670000       0.04840000       0.31570000
    92  H          0.72330000       0.54840000       0.68430000
    93  C          0.56147000       0.15032000       0.52966000
    94  C          0.43853000       0.65032000       0.47034000
    95  H          0.64600000       0.16940000       0.45070000
    96  H          0.35400000       0.66940000       0.54930000
    97  H          0.25860000       0.97598100       0.61050000
    98  H          0.74140000       0.47598100       0.38950000
    99  H          0.56270000       0.92788100       0.89950000
   100  H          0.43730000       0.42788100       0.10050000
