data_WOTJOE
_symmetry_space_group_name_H-M    'P1'
_symmetry_Int_Tables_number       1
loop_
_symmetry_equiv_pos_site_id
_symmetry_equiv_pos_as_xyz
1 x,y,z
_cell_length_a                   10.1101
_cell_length_b                   10.8512
_cell_length_c                   9.8202
_cell_angle_alpha                103.641
_cell_angle_beta                 94.951
_cell_angle_gamma                99.311
loop_
_atom_site_label
_atom_site_type_symbol
_atom_site_fract_x
_atom_site_fract_y
_atom_site_fract_z
     1  C          0.94692000       0.38712000       0.77868000
     2  C          0.05308000       0.61288000       0.22132000
     3  C          0.93772000       0.39842000       0.64068000
     4  C          0.06228000       0.60158000       0.35932000
     5  C          0.81603000       0.36562000       0.55658000
     6  C          0.18397000       0.63438000       0.44342000
     7  C          0.70192000       0.32262000       0.61118000
     8  C          0.29808000       0.67738000       0.38882000
     9  C          0.70942000       0.31002000       0.74788000
    10  C          0.29058000       0.68998000       0.25212000
    11  C          0.83322000       0.34012000       0.83478000
    12  C          0.16678000       0.65988000       0.16522000
    13  C          0.70172000       0.48732000       0.06922000
    14  C          0.29828000       0.51268000       0.93078000
    15  C          0.61152000       0.53382000       0.15692000
    16  C          0.38848000       0.46618000       0.84308000
    17  C          0.55292000       0.46182000       0.24132000
    18  C          0.44708000       0.53818000       0.75868000
    19  C          0.58502000       0.34292000       0.23912000
    20  C          0.41498000       0.65708000       0.76088000
    21  C          0.67812000       0.29742000       0.15472000
    22  C          0.32188000       0.70258000       0.84528000
    23  C          0.73882000       0.36852000       0.06892000
    24  C          0.26118000       0.63148000       0.93108000
    25  C          0.84052000       0.32112000       0.97978000
    26  C          0.15948000       0.67888000       0.02022000
    27  C          0.93622000       0.26352000       0.03202000
    28  C          0.06378000       0.73648000       0.96798000
    29  C          0.03312000       0.20412000       0.95308000
    30  C          0.96688000       0.79588000       0.04692000
    31  C          0.14052000       0.15942000       0.00052000
    32  C          0.85948000       0.84058000      -0.00052000
    33  C          0.22082000       0.09272000       0.89628000
    34  C          0.77918000       0.90728000       0.10372000
    35  C          0.15922000       0.01562000       0.76428000
    36  C          0.84078000      -0.01562000       0.23572000
    37  C          0.23542000       0.96068000       0.66378000
    38  C          0.76458000       0.03932000       0.33622000
    39  C          0.37392000       0.98118000       0.69378000
    40  C          0.62608000       0.01882000       0.30622000
    41  C          0.43622000       0.05422000       0.82428000
    42  C          0.56378000       0.94578000       0.17572000
    43  C          0.36062000       0.10942000       0.92488000
    44  C          0.63938000       0.89058000       0.07512000
    45  C          0.18572000       0.17422000       0.15322000
    46  C          0.81428000       0.82578000       0.84678000
    47  C          0.19572000       0.29052000       0.25412000
    48  C          0.80428000       0.70948000       0.74588000
    49  C          0.23682000       0.30062000       0.39532000
    50  C          0.76318000       0.69938000       0.60468000
    51  C          0.26792000       0.19552000       0.43822000
    52  C          0.73208000       0.80448000       0.56178000
    53  C          0.25982000       0.07992000       0.33942000
    54  C          0.74018000       0.92008000       0.66058000
    55  C          0.22032000       0.06982000       0.19882000
    56  C          0.77968000       0.93018000       0.80118000
    57  H          0.03220000       0.41200000       0.83590000
    58  H          0.96780000       0.58800000       0.16410000
    59  H          0.01700000       0.42920000       0.60420000
    60  H         -0.01700000       0.57080000       0.39580000
    61  H          0.81050000       0.37260000       0.46160000
    62  H          0.18950000       0.62740000       0.53840000
    63  H          0.61670000       0.30110000       0.55380000
    64  H          0.38330000       0.69890000       0.44620000
    65  H          0.62910000       0.28040000       0.78370000
    66  H          0.37090000       0.71960000       0.21630000
    67  H          0.73890000       0.53630000       0.00850000
    68  H          0.26110000       0.46370000      -0.00850000
    69  H          0.58990000       0.61630000       0.15890000
    70  H          0.41010000       0.38370000       0.84110000
    71  H          0.49030000       0.49380000       0.30090000
    72  H          0.50970000       0.50620000       0.69910000
    73  H          0.54310000       0.29190000       0.29570000
    74  H          0.45690000       0.70810000       0.70430000
    75  H          0.70090000       0.21590000       0.15540000
    76  H          0.29910000       0.78410000       0.84460000
    77  H          0.93950000       0.26240000       0.12880000
    78  H          0.06050000       0.73760000       0.87120000
    79  H          0.01950000       0.19530000       0.85400000
    80  H          0.98050000       0.80470000       0.14600000
    81  H          0.06360000       0.00050000       0.74290000
    82  H          0.93640000      -0.00050000       0.25710000
    83  H          0.19180000       0.90880000       0.57420000
    84  H          0.80820000       0.09120000       0.42580000
    85  H          0.42630000       0.94490000       0.62440000
    86  H          0.57370000       0.05510000       0.37560000
    87  H          0.53160000       0.06680000       0.84570000
    88  H          0.46840000       0.93320000       0.15430000
    89  H          0.40500000       0.15940000       0.01490000
    90  H          0.59500000       0.84060000       0.98510000
    91  H          0.17400000       0.36360000       0.22590000
    92  H          0.82600000       0.63640000       0.77410000
    93  H          0.24350000       0.38070000       0.46320000
    94  H          0.75650000       0.61930000       0.53680000
    95  H          0.29500000       0.20270000       0.53540000
    96  H          0.70500000       0.79730000       0.46460000
    97  H          0.28150000       0.00720000       0.36840000
    98  H          0.71850000      -0.00720000       0.63160000
    99  H          0.21650000      -0.01000000       0.13150000
   100  H          0.78350000       0.01000000       0.86850000
