data_WOTJOE05
_symmetry_space_group_name_H-M    'P1'
_symmetry_Int_Tables_number       1
loop_
_symmetry_equiv_pos_site_id
_symmetry_equiv_pos_as_xyz
1 x,y,z
_cell_length_a                   9.8357
_cell_length_b                   10.2227
_cell_length_c                   16.061
_cell_angle_alpha                83.791
_cell_angle_beta                 76.411
_cell_angle_gamma                87.921
loop_
_atom_site_label
_atom_site_type_symbol
_atom_site_fract_x
_atom_site_fract_y
_atom_site_fract_z
     1  C          0.18932000       0.78962000       0.17884150
     2  C          0.81068000       0.21038000       0.82115850
     3  C          0.22882000       0.85182000       0.09507160
     4  C          0.77118000       0.14818000       0.90492840
     5  H          0.19830000       0.81910000       0.05090000
     6  H          0.80170000       0.18090000       0.94910000
     7  C          0.31283000       0.96142000       0.07742000
     8  C          0.68717000       0.03858000       0.92258000
     9  H          0.33840000       0.00170000       0.02130000
    10  H          0.66160000      -0.00170000       0.97870000
    11  C          0.35873000       0.01153000       0.14112000
    12  C          0.64127000      -0.01153000       0.85888000
    13  H          0.41360000       0.08640000       0.12870000
    14  H          0.58640000       0.91360000       0.87130000
    15  C          0.32343000       0.95053000       0.22392000
    16  C          0.67657000       0.04947000       0.77608000
    17  H          0.35690000       0.98240000       0.26730000
    18  H          0.64310000       0.01760000       0.73270000
    19  C          0.23823000       0.84173000       0.24227180
    20  C          0.76177000       0.15827000       0.75772820
    21  H          0.21310000       0.80240000       0.29860000
    22  H          0.78690000       0.19760000       0.70140000
    23  C          0.10082000       0.67142000       0.19965140
    24  C          0.89918000       0.32858000       0.80034860
    25  C         -0.00712000       0.66302000       0.28266140
    26  C          0.00712000       0.33698000       0.71733860
    27  C          0.90127000       0.76753000       0.30301170
    28  C          0.09873000       0.23247000       0.69698830
    29  H          0.90960000       0.84370000       0.26500000
    30  H          0.09040000       0.15630000       0.73500000
    31  C          0.79897000       0.76113000       0.37762000
    32  C          0.20103000       0.23887000       0.62238000
    33  H          0.73690000       0.83120000       0.38920000
    34  H          0.26310000       0.16880000       0.61080000
    35  C          0.78847000       0.65024000       0.43562000
    36  C          0.21153000       0.34976000       0.56438000
    37  H          0.71960000       0.64550000       0.48660000
    38  H          0.28040000       0.35450000       0.51340000
    39  C          0.87887000       0.54753000       0.41819180
    40  C          0.12113000       0.45247000       0.58180820
    41  H          0.87190000       0.47310000       0.45770000
    42  H          0.12810000       0.52690000       0.54230000
    43  C          0.98087000       0.55262000       0.34241160
    44  C          0.01913000       0.44738000       0.65758840
    45  H          0.04190000       0.48160000       0.33130000
    46  H          0.95810000       0.51840000       0.66870000
    47  C          0.11752000       0.57742000       0.14443150
    48  C          0.88248000       0.42258000       0.85556850
    49  H          0.19330000       0.58640000       0.09710000
    50  H          0.80670000       0.41360000       0.90290000
    51  C          0.02952000       0.46512000       0.15177150
    52  C          0.97048000       0.53488000       0.84822850
    53  H          0.94970000       0.46050000       0.19650000
    54  H          0.05030000       0.53950000       0.80350000
    55  C          0.05012000       0.36532000       0.10078140
    56  C          0.94988000       0.63468000       0.89921860
    57  C          0.18032000       0.34624190       0.03453140
    58  C          0.81968000       0.65375810       0.96546860
    59  C          0.31162000       0.35662000       0.05048160
    60  C          0.68838000       0.64338000       0.94951840
    61  H          0.31930000       0.37700000       0.10420000
    62  H          0.68070000       0.62300000       0.89580000
    63  C          0.43073000       0.33722000       0.98822810
    64  C          0.56927000       0.66278000       0.01177190
    65  H          0.51770000       0.34520000       0.00040000
    66  H          0.48230000       0.65480000      -0.00040000
    67  C          0.42333000       0.30593000       0.90807810
    68  C          0.57667000       0.69407000       0.09192190
    69  H          0.50460000       0.29240000       0.86650000
    70  H          0.49540000       0.70760000       0.13350000
    71  C          0.29413000       0.29482000       0.89041830
    72  C          0.70587000       0.70518000       0.10958170
    73  H          0.28760000       0.27450000       0.83640000
    74  H          0.71240000       0.72550000       0.16360000
    75  C          0.17433000       0.31392000       0.95282850
    76  C          0.82567000       0.68608000       0.04717150
    77  H          0.08760000       0.30500000       0.94050000
    78  H          0.91240000       0.69500000       0.05950000
    79  C          0.93708000       0.26802000       0.11129140
    80  C          0.06292000       0.73198000       0.88870860
    81  C          0.79678000       0.30482000       0.13106150
    82  C          0.20322000       0.69518000       0.86893850
    83  H          0.77240000       0.39300000       0.13500000
    84  H          0.22760000       0.60700000       0.86500000
    85  C          0.69317000       0.21213000       0.14497160
    86  C          0.30683000       0.78787000       0.85502840
    87  H          0.59970000       0.23830000       0.15830000
    88  H          0.40030000       0.76170000       0.84170000
    89  C          0.72777000       0.08033000       0.13913170
    90  C          0.27223000       0.91967000       0.86086830
    91  H          0.65770000       0.01780000       0.14960000
    92  H          0.34230000       0.98220000       0.85040000
    93  C          0.86517000       0.04252000       0.11787160
    94  C          0.13483000       0.95748000       0.88212840
    95  H          0.88850000       0.95420000       0.11270000
    96  H          0.11150000       0.04580000       0.88730000
    97  C          0.96977000       0.13432000       0.10399150
    98  C          0.03023000       0.86568000       0.89600850
    99  H          0.06290000       0.10730000       0.08970000
   100  H          0.93710000       0.89270000       0.91030000
   101  C          0.71558000       0.15752000       0.43029140
   102  C          0.28442000       0.84248000       0.56970860
   103  C          0.81747000       0.15013000       0.35510160
   104  C          0.18253000       0.84987000       0.64489840
   105  H          0.79130000       0.14210000       0.30390000
   106  H          0.20870000       0.85790000       0.69610000
   107  C          0.95757000       0.15443000       0.35512000
   108  C          0.04243000       0.84557000       0.64488000
   109  H          0.02490000       0.14890000       0.30400000
   110  H          0.97510000       0.85110000       0.69600000
   111  C         -0.00203000       0.16683000       0.42972000
   112  C          0.00203000       0.83317000       0.57028000
   113  H          0.09250000       0.16970000       0.42950000
   114  H          0.90750000       0.83030000       0.57050000
   115  C          0.89907000       0.17473000       0.50442190
   116  C          0.10093000       0.82527000       0.49557810
   117  H          0.92650000       0.18360000       0.55510000
   118  H          0.07350000       0.81640000       0.44490000
   119  C          0.75907000       0.16983000       0.50538170
   120  C          0.24093000       0.83017000       0.49461830
   121  H          0.69280000       0.17470000       0.55690000
   122  H          0.30720000       0.82530000       0.44310000
   123  C          0.56498000       0.15422000       0.42979140
   124  C          0.43502000       0.84578000       0.57020860
   125  C          0.50908000       0.26352000       0.37834150
   126  C          0.49092000       0.73648000       0.62165850
   127  C          0.56597000       0.38823000       0.36632000
   128  C          0.43403000       0.61177000       0.63368000
   129  H          0.64270000       0.40290000       0.38850000
   130  H          0.35730000       0.59710000       0.61150000
   131  C          0.50846000       0.49173000       0.32103000
   132  C          0.49154000       0.50827000       0.67897000
   133  H          0.54740000       0.57500000       0.31330000
   134  H          0.45260000       0.42500000       0.68670000
   135  C          0.39697000       0.47253000       0.28822000
   136  C          0.60303000       0.52747000       0.71178000
   137  H          0.35870000       0.54250000       0.25900000
   138  H          0.64130000       0.45750000       0.74100000
   139  C          0.34067000       0.35033000       0.29794180
   140  C          0.65933000       0.64967000       0.70205820
   141  H          0.26500000       0.33660000       0.27460000
   142  H          0.73500000       0.66340000       0.72540000
   143  C          0.39627000       0.24703000       0.34245150
   144  C          0.60373000       0.75297000       0.65754850
   145  H          0.35710000       0.16400000       0.34860000
   146  H          0.64290000       0.83600000       0.65140000
   147  C          0.47938000       0.05672000       0.47510150
   148  C          0.52062000       0.94328000       0.52489850
   149  H          0.38540000       0.06410000       0.47370000
   150  H          0.61460000       0.93590000       0.52630000
