data_XAFPAY04
_symmetry_space_group_name_H-M    'P1'
_symmetry_Int_Tables_number       1
loop_
_symmetry_equiv_pos_site_id
_symmetry_equiv_pos_as_xyz
1 x,y,z
_cell_length_a                   6.6878
_cell_length_b                   12.18018
_cell_length_c                   24.394
_cell_angle_alpha                102.883
_cell_angle_beta                 96.692
_cell_angle_gamma                97.21515
loop_
_atom_site_label
_atom_site_type_symbol
_atom_site_fract_x
_atom_site_fract_y
_atom_site_fract_z
     1  Cl         0.76567000       0.06528190       0.01979700
     2  Cl         0.23433000       0.93471810       0.98020300
     3  Cl         0.55598000       0.01132000       0.12182800
     4  Cl         0.44402000      -0.01132000       0.87817200
     5  O          0.18465000       0.26073000       0.55924140
     6  O          0.81535000       0.73927000       0.44075860
     7  O          0.19516000       0.31374000       0.65351140
     8  O          0.80484000       0.68626000       0.34648860
     9  H          0.30140000       0.28670000       0.65300000
    10  H          0.69860000       0.71330000       0.34700000
    11  C          0.82747000       0.37234000       0.54422000
    12  C          0.17253000       0.62766000       0.45578000
    13  C          0.93497000       0.36834000       0.59762000
    14  C          0.06503000       0.63166000       0.40238000
    15  N          0.88997000       0.32524000       0.49342170
    16  N          0.11003000       0.67476000       0.50657830
    17  C          0.76638000       0.29524000       0.43870190
    18  C          0.23362000       0.70476000       0.56129810
    19  C          0.11447000       0.30994000       0.60102000
    20  C          0.88553000       0.69006000       0.39898000
    21  C          0.86478000       0.41914000       0.64792000
    22  C          0.13522000       0.58086000       0.35208000
    23  H          0.93530000       0.41710000       0.68280000
    24  H          0.06470000       0.58290000       0.31720000
    25  C          0.56968000       0.23614000       0.43082000
    26  C          0.43032000       0.76386000       0.56918000
    27  H          0.51340000       0.21950000       0.46170000
    28  H          0.48660000       0.78050000       0.53830000
    29  C          0.59229000       0.47775000       0.59482000
    30  C          0.40771000       0.52225000       0.40518000
    31  H          0.47950000       0.51510000       0.59370000
    32  H          0.52050000       0.48490000       0.40630000
    33  C          0.84648000       0.32124000       0.39282000
    34  C          0.15352000       0.67876000       0.60718000
    35  H         -0.02290000       0.36210000       0.39780000
    36  H          0.02290000       0.63790000       0.60220000
    37  C          0.53678000       0.22545000       0.32952000
    38  C          0.46322000       0.77455000       0.67048000
    39  C          0.73118000       0.28625000       0.33892000
    40  C          0.26882000       0.71375000       0.66108000
    41  H          0.78670000       0.30440000       0.30830000
    42  H          0.21330000       0.69560000       0.69170000
    43  C          0.45738000       0.20195000       0.37682000
    44  C          0.54262000       0.79805000       0.62318000
    45  H          0.32570000       0.16230000       0.37190000
    46  H          0.67430000       0.83770000       0.62810000
    47  C          0.65769000       0.42845000       0.54462000
    48  C          0.34231000       0.57155000       0.45538000
    49  H          0.58660000       0.43270000       0.51030000
    50  H          0.41340000       0.56730000       0.48970000
    51  C          0.80452000       0.08295000       0.13432000
    52  C          0.19548000       0.91705000       0.86568000
    53  C          0.10489000       0.17635000       0.20002000
    54  C          0.89511000       0.82365000       0.79998000
    55  C          0.89671000       0.10625000       0.08962000
    56  C          0.10329000       0.89375000       0.91038000
    57  C          0.69439000       0.47155000       0.64693000
    58  C          0.30561000       0.52845000       0.35307000
    59  H          0.64770000       0.50240000       0.68060000
    60  H          0.35230000       0.49760000       0.31940000
    61  C          0.90891000       0.11725000       0.18812000
    62  C          0.09109000       0.88275000       0.81188000
    63  H          0.84590000       0.10020000       0.21790000
    64  H          0.15410000       0.89980000       0.78210000
    65  C          0.19531000       0.19736000       0.15443000
    66  C          0.80469000       0.80264000       0.84557000
    67  H          0.32760000       0.23670000       0.16110000
    68  H          0.67240000       0.76330000       0.83890000
    69  C          0.21971000       0.21827000       0.26083000
    70  C          0.78029000       0.78173000       0.73917000
    71  H          0.24040000       0.30090000       0.27090000
    72  H          0.75960000       0.69910000       0.72910000
    73  H          0.13470000       0.19220000       0.28650000
    74  H          0.86530000       0.80780000       0.71350000
    75  C          0.09381100       0.16116000       0.09873000
    76  C          0.90618900       0.83884000       0.90127000
    77  H          0.15830000       0.17390000       0.06840000
    78  H          0.84170000       0.82610000       0.93160000
    79  C          0.41561000       0.18097000       0.26972000
    80  C          0.58439000       0.81903000       0.73028000
    81  H          0.49800000       0.20420000       0.24290000
    82  H          0.50200000       0.79580000       0.75710000
    83  H          0.39370000       0.09820000       0.26100000
    84  H          0.60630000       0.90180000       0.73900000
    85  H         -0.00120000       0.29640000       0.49220000
    86  H          0.00120000       0.70360000       0.50780000
    87  Cl         0.69635000       0.47583000       0.22543900
    88  Cl         0.30365000       0.52417000       0.77456100
    89  O          0.48924000       0.14114000       0.56242140
    90  O          0.51076000       0.85886000       0.43757860
    91  H          0.39540000       0.17840000       0.56300000
    92  H          0.60460000       0.82160000       0.43700000
    93  O          0.50045000       0.19673000       0.65645140
    94  O          0.49955000       0.80327000       0.34354860
    95  C          0.75143000       0.09004000       0.61926190
    96  C          0.24857000       0.90996000       0.38073810
    97  C          0.86813000       0.09634000       0.67302000
    98  C          0.13187000       0.90366000       0.32698000
    99  N          0.81262000       0.15495000       0.72252190
   100  N          0.18738000       0.84505000       0.27747810
   101  C          0.57183000       0.14694000       0.61482000
   102  C          0.42817000       0.85306000       0.38518000
   103  C          0.08948000       0.97705000       0.62392000
   104  C          0.91052000       0.02295000       0.37608000
   105  H          0.20190000       0.93950000       0.62550000
   106  H          0.79810000       0.06050000       0.37450000
   107  C          0.81002000       0.02704000       0.56992000
   108  C          0.18998000       0.97296000       0.43008000
   109  H          0.73370000       0.02270000       0.53480000
   110  H          0.26630000       0.97730000       0.46520000
   111  C          0.03738000       0.03775000       0.67352000
   112  C          0.96262000       0.96225000       0.32648000
   113  H          0.11500000       0.04010000       0.70810000
   114  H          0.88500000       0.95990000       0.29190000
   115  C         -0.02279000       0.97125000       0.57152000
   116  C          0.02279000       0.02875000       0.42848000
   117  H          0.01400000       0.93060000       0.53810000
   118  H         -0.01400000       0.06940000       0.46190000
   119  C          0.92201000       0.17705000       0.77832000
   120  C          0.07799000       0.82295000       0.22168000
   121  Cl         0.29027000       0.55673000       0.19491160
   122  Cl         0.70973000       0.44327000       0.80508840
   123  C          0.12669000       0.22225000       0.79192000
   124  C          0.87331000       0.77775000       0.20808000
   125  H          0.20000000       0.23740000       0.76360000
   126  H          0.80000000       0.76260000       0.23640000
   127  C          0.81689000       0.15646000       0.82132000
   128  C          0.18311000       0.84354000       0.17868000
   129  H          0.67930000       0.12540000       0.81310000
   130  H          0.32070000       0.87460000       0.18690000
   131  C          0.22281100       0.24516000       0.84763000
   132  C          0.77718900       0.75484000       0.15237000
   133  H          0.36100000       0.27460000       0.85600000
   134  H          0.63900000       0.72540000       0.14400000
   135  C          0.11941200       0.22516000       0.89113000
   136  C          0.88058800       0.77484000       0.10887000
   137  C          0.91558700       0.18196000       0.87643000
   138  C          0.08441300       0.81804000       0.12357000
   139  H          0.84110000       0.16920000       0.90490000
   140  H          0.15890000       0.83080000       0.09510000
   141  C          0.58471700       0.44227000       0.15383000
   142  C          0.41528300       0.55773000       0.84617000
   143  C          0.30301700       0.45448000       0.08455000
   144  C          0.69698300       0.54552000       0.91545000
   145  H          0.18140000       0.48080000       0.07590000
   146  H          0.81860000       0.51920000       0.92410000
   147  C          0.22801600       0.25127000       0.95263000
   148  C          0.77198400       0.74873000       0.04737000
   149  H          0.14280000       0.21190000       0.97410000
   150  H          0.85720000       0.78810000       0.02590000
   151  H          0.35390000       0.21940000       0.95250000
   152  H          0.64610000       0.78060000       0.04750000
   153  C          0.40111600       0.48127000       0.14303000
   154  C          0.59888400       0.51873000       0.85697000
   155  C          0.27420000       0.36498000       0.98103000
   156  C          0.72580000       0.63502000       0.01897000
   157  H          0.14770000       0.39660000       0.98050000
   158  H          0.85230000       0.60340000       0.01950000
   159  H          0.35970000       0.40370000       0.95950000
   160  H          0.64030000       0.59630000       0.04050000
   161  C          0.56920000       0.35569000       0.05724000
   162  C          0.43080000       0.64431000       0.94276000
   163  H          0.62390000       0.31200000       0.02800000
   164  H          0.37610000       0.68800000       0.97200000
   165  C          0.69061800       0.38357000       0.12055000
   166  C          0.30938200       0.61643000       0.87945000
   167  H          0.81460000       0.36170000       0.13130000
   168  H          0.18540000       0.63830000       0.86870000
   169  C          0.38120000       0.39388000       0.04334000
   170  C          0.61880000       0.60612000       0.95666000
   171  H          0.68510000       0.17550000       0.71820000
   172  H          0.31490000       0.82450000       0.28180000
