data_XAFPAY
_symmetry_space_group_name_H-M    'P1'
_symmetry_Int_Tables_number       1
loop_
_symmetry_equiv_pos_site_id
_symmetry_equiv_pos_as_xyz
1 x,y,z
_cell_length_a                   11.16371
_cell_length_b                   10.52951
_cell_length_c                   16.235815
_cell_angle_alpha                90.0
_cell_angle_beta                 95.7492
_cell_angle_gamma                90.0
loop_
_atom_site_label
_atom_site_type_symbol
_atom_site_fract_x
_atom_site_fract_y
_atom_site_fract_z
     1  Cl         0.46583800       0.85135100       0.05960500
     2  Cl         0.53416200       0.35135100       0.44039500
     3  Cl         0.53416200       0.14864900       0.94039500
     4  Cl         0.46583800       0.64864900       0.55960500
     5  Cl         0.50865100       0.56115900       0.09341500
     6  Cl         0.49134900       0.06115900       0.40658500
     7  Cl         0.49134900       0.43884100       0.90658500
     8  Cl         0.50865100       0.93884100       0.59341500
     9  O         -0.01012850       0.52552170       0.90073900
    10  O          0.01012850       0.02552170       0.59926100
    11  O          0.01012850       0.47447830       0.09926100
    12  O         -0.01012850       0.97447830       0.40073900
    13  C          0.15442000       0.64032000       0.85380140
    14  C          0.84558000       0.14032000       0.64619860
    15  C          0.84558000       0.35968000       0.14619860
    16  C          0.15442000       0.85968000       0.35380140
    17  C          0.10882000       0.64332000       0.76873140
    18  C          0.89118000       0.14332000       0.73126860
    19  C          0.89118000       0.35668000       0.23126860
    20  C          0.10882000       0.85668000       0.26873140
    21  C          0.08612000       0.58202000       0.91623140
    22  C          0.91388000       0.08202000       0.58376860
    23  C          0.91388000       0.41798000       0.08376860
    24  C          0.08612000       0.91798000       0.41623140
    25  O          0.13652000       0.59422000      -0.00709880
    26  O          0.86348000       0.09422000       0.50709880
    27  O          0.86348000       0.40578000       0.00709880
    28  O          0.13652000       0.90578000       0.49290120
    29  N          0.00282000       0.58592000       0.74082130
    30  N         -0.00282000       0.08592000       0.75917870
    31  N         -0.00282000       0.41408000       0.25917870
    32  N          0.00282000       0.91408000       0.24082130
    33  C          0.93822000       0.60402000       0.66192140
    34  C          0.06178000       0.10402000       0.83807860
    35  C          0.06178000       0.39598000       0.33807860
    36  C          0.93822000       0.89598000       0.16192140
    37  C          0.57692000       0.67283000       0.15956140
    38  C          0.42308000       0.17283000       0.34043860
    39  C          0.42308000       0.32717000       0.84043860
    40  C          0.57692000       0.82717000       0.65956140
    41  C          0.89673000       0.50093000       0.61616160
    42  C          0.10327000       0.00093000       0.88383840
    43  C          0.10327000       0.49907000       0.38383840
    44  C          0.89673000      -0.00093000       0.11616160
    45  H          0.91530000       0.41920000       0.63520000
    46  H          0.08470000       0.91920000       0.86480000
    47  H          0.08470000       0.58080000       0.36480000
    48  H          0.91530000       0.08080000       0.13520000
    49  C          0.70702000       0.72023000       0.28276160
    50  C          0.29298000       0.22023000       0.21723840
    51  C          0.29298000       0.27977000       0.71723840
    52  C          0.70702000       0.77977000       0.78276160
    53  C          0.65102000       0.63303000       0.22844150
    54  C          0.34898000       0.13303000       0.27155850
    55  C          0.34898000       0.36697000       0.77155850
    56  C          0.65102000       0.86697000       0.72844150
    57  H          0.66300000       0.54660000       0.23810000
    58  H          0.33700000       0.04660000       0.26190000
    59  H          0.33700000       0.45340000       0.76190000
    60  H          0.66300000       0.95340000       0.73810000
    61  C          0.55722000       0.80033000       0.14531160
    62  C          0.44278000       0.30033000       0.35468840
    63  C          0.44278000       0.19967000       0.85468840
    64  C          0.55722000       0.69967000       0.64531160
    65  C          0.26692000       0.69332000       0.87802170
    66  C          0.73308000       0.19332000       0.62197830
    67  C          0.73308000       0.30668000       0.12197830
    68  C          0.26692000       0.80668000       0.37802170
    69  H          0.29760000       0.68850000       0.93330000
    70  H          0.70240000       0.18850000       0.56670000
    71  H          0.70240000       0.31150000       0.06670000
    72  H          0.29760000       0.81150000       0.43330000
    73  C          0.79733000       0.63843000       0.51140160
    74  C          0.20267000       0.13843000       0.98859840
    75  C          0.20267000       0.36157000       0.48859840
    76  C          0.79733000       0.86157000       0.01140160
    77  C          0.17882000       0.70463000       0.71374160
    78  C          0.82118000       0.20463000       0.78625840
    79  C          0.82118000       0.29537000       0.28625840
    80  C          0.17882000       0.79537000       0.21374160
    81  H          0.15100000       0.70910000       0.65790000
    82  H          0.84900000       0.20910000       0.84210000
    83  H          0.84900000       0.29090000       0.34210000
    84  H          0.15100000       0.79090000       0.15790000
    85  C          0.84153000       0.74043000       0.55811190
    86  C          0.15847000       0.24043000       0.94188810
    87  C          0.15847000       0.25957000       0.44188810
    88  C          0.84153000       0.75957000       0.05811190
    89  H          0.82480000       0.82220000       0.53870000
    90  H          0.17520000       0.32220000       0.96130000
    91  H          0.17520000       0.17780000       0.46130000
    92  H          0.82480000       0.67780000       0.03870000
    93  C          0.90983000       0.72413000       0.63273160
    94  C          0.09017000       0.22413000       0.86726840
    95  C          0.09017000       0.27587000       0.36726840
    96  C          0.90983000       0.77587000       0.13273160
    97  H          0.93690000       0.79470000       0.66360000
    98  H          0.06310000       0.29470000       0.83640000
    99  H          0.06310000       0.20530000       0.33640000
   100  H          0.93690000       0.70530000       0.16360000
   101  C          0.28703000       0.75773000       0.74072000
   102  C          0.71297000       0.25773000       0.75928000
   103  C          0.71297000       0.24227000       0.25928000
   104  C          0.28703000       0.74227000       0.24072000
   105  H          0.33100000       0.79890000       0.70300000
   106  H          0.66900000       0.29890000       0.79700000
   107  H          0.66900000       0.20110000       0.29700000
   108  H          0.33100000       0.70110000       0.20300000
   109  C          0.71793000       0.66094000       0.43102180
   110  C          0.28207000       0.16094000       0.06897820
   111  C          0.28207000       0.33906000       0.56897820
   112  C          0.71793000       0.83906000       0.93102180
   113  H          0.66370000       0.58930000       0.42070000
   114  H          0.33630000       0.08930000       0.07930000
   115  H          0.33630000       0.41070000       0.57930000
   116  H          0.66370000       0.91070000       0.92070000
   117  H          0.66930000       0.73610000       0.43690000
   118  H          0.33070000       0.23610000       0.06310000
   119  H          0.33070000       0.26390000       0.56310000
   120  H          0.66930000       0.76390000       0.93690000
   121  C          0.82673000       0.51823000       0.54119180
   122  C          0.17327000       0.01823000       0.95880820
   123  C          0.17327000       0.48177000       0.45880820
   124  C          0.82673000       0.98177000       0.04119180
   125  H          0.79910000       0.44760000       0.51050000
   126  H          0.20090000       0.94760000       0.98950000
   127  H          0.20090000       0.55240000       0.48950000
   128  H          0.79910000       0.05240000       0.01050000
   129  C          0.78863000       0.67774000       0.35857160
   130  C          0.21137000       0.17774000       0.14142840
   131  C          0.21137000       0.32226000       0.64142840
   132  C          0.78863000       0.82226000       0.85857160
   133  H          0.82710000       0.59810000       0.34670000
   134  H          0.17290000       0.09810000       0.15330000
   135  H          0.17290000       0.40190000       0.65330000
   136  H          0.82710000       0.90190000       0.84670000
   137  H          0.85100000       0.74070000       0.37160000
   138  H          0.14900000       0.24070000       0.12840000
   139  H          0.14900000       0.25930000       0.62840000
   140  H          0.85100000       0.75930000       0.87160000
   141  C          0.68423000       0.84683000       0.26802000
   142  C          0.31577000       0.34683000       0.23198000
   143  C          0.31577000       0.15317000       0.73198000
   144  C          0.68423000       0.65317000       0.76802000
   145  H          0.71940000       0.90680000       0.30490000
   146  H          0.28060000       0.40680000       0.19510000
   147  H          0.28060000       0.09320000       0.69510000
   148  H          0.71940000       0.59320000       0.80490000
   149  C          0.33303000       0.75173000       0.82322000
   150  C          0.66697000       0.25173000       0.67678000
   151  C          0.66697000       0.24827000       0.17678000
   152  C          0.33303000       0.74827000       0.32322000
   153  H          0.40760000       0.78690000       0.84070000
   154  H          0.59240000       0.28690000       0.65930000
   155  H          0.59240000       0.21310000       0.15930000
   156  H          0.40760000       0.71310000       0.34070000
   157  C          0.61023000       0.88733000       0.19982000
   158  C          0.38977000       0.38733000       0.30018000
   159  C          0.38977000       0.11267000       0.80018000
   160  C          0.61023000       0.61267000       0.69982000
   161  H          0.59650000       0.97360000       0.19100000
   162  H          0.40350000       0.47360000       0.30900000
   163  H          0.40350000       0.02640000       0.80900000
   164  H          0.59650000       0.52640000       0.69100000
   165  H          0.96820000       0.55020000       0.77111500
   166  H          0.03180000       0.05020000       0.72888500
   167  H          0.03180000       0.44980000       0.22888500
   168  H          0.96820000       0.94980000       0.27111500
   169  H          0.10230000       0.55730000       0.01920000
   170  H          0.89770000       0.05730000       0.48080000
   171  H          0.89770000       0.44270000       0.98080000
   172  H          0.10230000       0.94270000       0.51920000
