data_XAFPAY03
_symmetry_space_group_name_H-M    'P1'
_symmetry_Int_Tables_number       1
loop_
_symmetry_equiv_pos_site_id
_symmetry_equiv_pos_as_xyz
1 x,y,z
_cell_length_a                   13.8864
_cell_length_b                   10.7283
_cell_length_c                   14.0784
_cell_angle_alpha                90.0
_cell_angle_beta                 113.6325
_cell_angle_gamma                90.0
loop_
_atom_site_label
_atom_site_type_symbol
_atom_site_fract_x
_atom_site_fract_y
_atom_site_fract_z
     1  Cl         0.74793130       0.19082190       0.19904170
     2  Cl         0.75206870       0.69082190       0.30095830
     3  Cl         0.25206870       0.80917810       0.80095830
     4  Cl         0.24793130       0.30917810       0.69904170
     5  Cl         0.62068150       0.44123160       0.14084160
     6  Cl         0.87931850       0.94123160       0.35915840
     7  Cl         0.37931850       0.55876840       0.85915840
     8  Cl         0.12068150       0.05876840       0.64084160
     9  N          0.77377000       0.10505000       0.76567000
    10  N          0.72623000       0.60505000       0.73433000
    11  N          0.22623000       0.89495000       0.23433000
    12  N          0.27377000       0.39495000       0.26567000
    13  O          0.60997000       0.03113000       0.59717000
    14  O          0.89003000       0.53113000       0.90283000
    15  O          0.39003000       0.96887000       0.40283000
    16  O          0.10997000       0.46887000       0.09717000
    17  O          0.45097000       0.09764000       0.57697000
    18  O          0.04903000       0.59764000       0.92303000
    19  O          0.54903000       0.90236000       0.42303000
    20  O          0.95097000       0.40236000       0.07697000
    21  C          0.61225000       0.19166000       0.15295000
    22  C          0.88775000       0.69166000       0.34705000
    23  C          0.38775000       0.80834000       0.84705000
    24  C          0.11225000       0.30834000       0.65295000
    25  C          0.55685000       0.30036000       0.12674000
    26  C          0.94315000       0.80036000       0.37326000
    27  C          0.44315000       0.69964000       0.87326000
    28  C          0.05685000       0.19964000       0.62674000
    29  C          0.44745000       0.30107000       0.08995000
    30  C          0.05255000       0.80107000       0.41005000
    31  C          0.55255000       0.69893000       0.91005000
    32  C          0.94745000       0.19893000       0.58995000
    33  H          0.41040000       0.37570000       0.07230000
    34  H          0.08960000       0.87570000       0.42770000
    35  H          0.58960000       0.62430000       0.92770000
    36  H          0.91040000       0.12430000       0.57230000
    37  C          0.39455000       0.18988000       0.07995000
    38  C          0.10545000       0.68988000       0.42005000
    39  C          0.60545000       0.81012000       0.92005000
    40  C          0.89455000       0.31012000       0.57995000
    41  C          0.45305000       0.07907000       0.10486000
    42  C          0.04695000       0.57907000       0.39514000
    43  C          0.54695000       0.92093000       0.89514000
    44  C          0.95305000       0.42093000       0.60486000
    45  H          0.41840000       0.00300000       0.09650000
    46  H          0.08160000       0.50300000       0.40350000
    47  H          0.58160000      -0.00300000       0.90350000
    48  H          0.91840000       0.49700000       0.59650000
    49  C          0.55965000       0.08117000       0.14096000
    50  C          0.94035000       0.58117000       0.35904000
    51  C          0.44035000       0.91883000       0.85904000
    52  C          0.05965000       0.41883000       0.64096000
    53  H          0.59710000       0.00670000       0.15740000
    54  H          0.90290000       0.50670000       0.34260000
    55  H          0.40290000      -0.00670000       0.84260000
    56  H          0.09710000       0.49330000       0.65740000
    57  C          0.27365000       0.18388000       0.04546000
    58  C          0.22635000       0.68388000       0.45454000
    59  C          0.72635000       0.81612000       0.95454000
    60  C          0.77365000       0.31612000       0.54546000
    61  H          0.25670000       0.12590000       0.08940000
    62  H          0.24330000       0.62590000       0.41060000
    63  H          0.74330000       0.87410000       0.91060000
    64  H          0.75670000       0.37410000       0.58940000
    65  H          0.24740000       0.26540000       0.05290000
    66  H          0.25260000       0.76540000       0.44710000
    67  H          0.75260000       0.73460000       0.94710000
    68  H          0.74740000       0.23460000       0.55290000
    69  C          0.22466000       0.14471100       0.94103000
    70  C          0.27534000       0.64471100       0.55897000
    71  C          0.77534000       0.85528900       0.05897000
    72  C          0.72466000       0.35528900       0.44103000
    73  H          0.25350000       0.06480000       0.93370000
    74  H          0.24650000       0.56480000       0.56630000
    75  H          0.74650000       0.93520000       0.06630000
    76  H          0.75350000       0.43520000       0.43370000
    77  H          0.24040000       0.20420000       0.89750000
    78  H          0.25960000       0.70420000       0.60250000
    79  H          0.75960000       0.79580000       0.10250000
    80  H          0.74040000       0.29580000       0.39750000
    81  C          0.10265000       0.13259000       0.90265000
    82  C          0.39735000       0.63259000       0.59735000
    83  C          0.89735000       0.86741000       0.09735000
    84  C          0.60265000       0.36741000       0.40265000
    85  C          0.05275000       0.01968000       0.88454000
    86  C          0.44725000       0.51968000       0.61546000
    87  C          0.94725000       0.98032000       0.11546000
    88  C          0.55275000       0.48032000       0.38454000
    89  H          0.09280000       0.94720000       0.90130000
    90  H          0.40720000       0.44720000       0.59870000
    91  H          0.90720000       0.05280000       0.09870000
    92  H          0.59280000       0.55280000       0.40130000
    93  C          0.94556000       0.01027000       0.84265000
    94  C          0.55444000       0.51027000       0.65735000
    95  C          0.05444000      -0.01027000       0.15735000
    96  C          0.44556000       0.48973000       0.34265000
    97  H          0.91360000       0.93230000       0.83190000
    98  H          0.58640000       0.43230000       0.66810000
    99  H          0.08640000       0.06770000       0.16810000
   100  H          0.41360000       0.56770000       0.33190000
   101  C          0.88536000       0.11656000       0.81676000
   102  C          0.61464000       0.61656000       0.68324000
   103  C          0.11464000       0.88344000       0.18324000
   104  C          0.38536000       0.38344000       0.31676000
   105  C          0.93355000       0.23056000       0.83485000
   106  C          0.56645000       0.73056000       0.66515000
   107  C          0.06645000       0.76944000       0.16515000
   108  C          0.43355000       0.26944000       0.33485000
   109  H          0.89360000       0.30300000       0.81760000
   110  H          0.60640000       0.80300000       0.68240000
   111  H          0.10640000       0.69700000       0.18240000
   112  H          0.39360000       0.19700000       0.31760000
   113  C          0.04195000       0.23737000       0.87895000
   114  C          0.45805000       0.73737000       0.62105000
   115  C          0.95805000       0.76263000       0.12105000
   116  C          0.54195000       0.26263000       0.37895000
   117  H          0.07420000       0.31500000       0.89280000
   118  H          0.42580000       0.81500000       0.60720000
   119  H          0.92580000       0.68500000       0.10720000
   120  H          0.57420000       0.18500000       0.39280000
   121  C          0.70146000       0.16465000       0.79296000
   122  C          0.79854000       0.66465000       0.70704000
   123  C          0.29854000       0.83535000       0.20704000
   124  C          0.20146000       0.33535000       0.29296000
   125  C          0.59276000       0.15845000       0.72906000
   126  C          0.90724000       0.65845000       0.77094000
   127  C          0.40724000       0.84155000       0.27094000
   128  C          0.09276000       0.34155000       0.22906000
   129  C          0.52086000       0.21605000       0.76125000
   130  C          0.97914000       0.71605000       0.73875000
   131  C          0.47914000       0.78395000       0.23875000
   132  C          0.02086000       0.28395000       0.26125000
   133  H          0.44940000       0.21070000       0.71960000
   134  H          0.05060000       0.71070000       0.78040000
   135  H          0.55060000       0.78930000       0.28040000
   136  H          0.94940000       0.28930000       0.21960000
   137  C          0.55284000       0.27966000       0.85215000
   138  C          0.94716000       0.77966000       0.64785000
   139  C          0.44716000       0.72034000       0.14785000
   140  C          0.05284000       0.22034000       0.35215000
   141  H          0.50400000       0.31750000       0.87270000
   142  H         -0.00400000       0.81750000       0.62730000
   143  H          0.49600000       0.68250000       0.12730000
   144  H          0.00400000       0.18250000       0.37270000
   145  C          0.65905000       0.28746000       0.91395000
   146  C          0.84095000       0.78746000       0.58605000
   147  C          0.34095000       0.71254000       0.08605000
   148  C          0.15905000       0.21254000       0.41395000
   149  H          0.68150000       0.33190000       0.97580000
   150  H          0.81850000       0.83190000       0.52420000
   151  H          0.31850000       0.66810000       0.02420000
   152  H          0.18150000       0.16810000       0.47580000
   153  C          0.73185000       0.23055000       0.88576000
   154  C          0.76815000       0.73055000       0.61424000
   155  C          0.26815000       0.76945000       0.11424000
   156  C          0.23185000       0.26945000       0.38576000
   157  H          0.80280000       0.23600000       0.92930000
   158  H          0.69720000       0.73600000       0.57070000
   159  H          0.19720000       0.76400000       0.07070000
   160  H          0.30280000       0.26400000       0.42930000
   161  C          0.55446000       0.09005000       0.62976000
   162  C          0.94554000       0.59005000       0.87024000
   163  C          0.44554000       0.90995000       0.37024000
   164  C          0.05446000       0.40995000       0.12976000
   165  H          0.74760000       0.04130000       0.70770000
   166  H          0.75240000       0.54130000       0.79230000
   167  H          0.25240000       0.95870000       0.29230000
   168  H          0.24760000       0.45870000       0.20770000
   169  H          0.43050000       0.05450000       0.50780000
   170  H          0.06950000       0.55450000      -0.00780000
   171  H          0.56950000       0.94550000       0.49220000
   172  H          0.93050000       0.44550000       0.00780000
