data_XAFPAY02
_symmetry_space_group_name_H-M    'P1'
_symmetry_Int_Tables_number       1
loop_
_symmetry_equiv_pos_site_id
_symmetry_equiv_pos_as_xyz
1 x,y,z
_cell_length_a                   7.637511
_cell_length_b                   12.039317
_cell_length_c                   20.4433
_cell_angle_alpha                84.7903
_cell_angle_beta                 85.3794
_cell_angle_gamma                80.0913
loop_
_atom_site_label
_atom_site_type_symbol
_atom_site_fract_x
_atom_site_fract_y
_atom_site_fract_z
     1  Cl         0.62432150       0.83855900       0.49159500
     2  Cl         0.37567850       0.16144100       0.50840500
     3  Cl         0.39359160       0.90704800       0.62163600
     4  Cl         0.60640840       0.09295200       0.37836400
     5  O          0.00653000       0.78918000      -0.00063890
     6  O         -0.00653000       0.21082000       0.00063890
     7  O          0.22873000       0.85493830       0.94021110
     8  O          0.77127000       0.14506170       0.05978890
     9  N          0.14994000       0.03703000       0.85645160
    10  N          0.85006000       0.96297000       0.14354840
    11  C          0.93066000       0.94768000       0.92527140
    12  C          0.06934000       0.05232000       0.07472860
    13  C          0.75096000       0.94497000       0.94361160
    14  C          0.24904000       0.05503000       0.05638840
    15  H          0.72080000       0.88800000       0.97400000
    16  H          0.27920000       0.11200000       0.02600000
    17  C          0.61956000       0.02363000       0.91814180
    18  C          0.38044000       0.97637000       0.08185820
    19  H          0.50090000       0.02040000       0.93110000
    20  H          0.49910000       0.97960000       0.06890000
    21  C          0.66375000       0.10853000       0.87283170
    22  C          0.33625000       0.89147000       0.12716830
    23  H          0.57400000       0.16270000       0.85550000
    24  H          0.42600000       0.83730000       0.14450000
    25  C          0.83896000       0.11383000       0.85307160
    26  C          0.16104000       0.88617000       0.14692840
    27  H          0.86600000       0.17150000       0.82260000
    28  H          0.13400000       0.82850000       0.17740000
    29  C          0.97696000       0.03333000       0.87834140
    30  C          0.02304000       0.96667000       0.12165860
    31  C          0.06774000       0.86088000       0.95465150
    32  C          0.93226000       0.13912000       0.04534850
    33  C          0.21644000       0.12213000       0.81487150
    34  C          0.78356000       0.87787000       0.18512850
    35  C          0.32315000       0.09243000       0.75901170
    36  C          0.67685000       0.90757000       0.24098830
    37  H          0.34540000       0.01740000       0.74870000
    38  H          0.65460000       0.98260000       0.25130000
    39  C          0.39605000       0.17223000       0.71885180
    40  C          0.60395000       0.82777000       0.28114820
    41  H          0.46820000       0.15010000       0.68190000
    42  H          0.53180000       0.84990000       0.31810000
    43  C          0.36475000       0.28493000       0.73200180
    44  C          0.63525000       0.71507000       0.26799820
    45  C          0.25845000       0.31393000       0.78805180
    46  C          0.74155000       0.68607000       0.21194820
    47  H          0.23610000       0.38890000       0.79840000
    48  H          0.76390000       0.61110000       0.20160000
    49  C          0.18505000       0.23373000       0.82889170
    50  C          0.81495000       0.76627000       0.17110830
    51  H          0.11370000       0.25530000       0.86620000
    52  H          0.88630000       0.74470000       0.13380000
    53  C          0.44916000       0.36913000       0.68572000
    54  C          0.55084000       0.63087000       0.31428000
    55  H          0.57540000       0.35670000       0.69250000
    56  H          0.42460000       0.64330000       0.30750000
    57  H          0.43720000       0.35180000       0.64100000
    58  H          0.56280000       0.64820000       0.35900000
    59  C          0.38296000       0.48513000       0.69042000
    60  C          0.61704000       0.51487000       0.30958000
    61  H          0.40580000       0.50370000       0.73380000
    62  H          0.59420000       0.49630000       0.26620000
    63  H          0.25460000       0.49570000       0.68840000
    64  H          0.74540000       0.50430000       0.31160000
    65  C          0.45195000       0.57103000       0.64062170
    66  C          0.54805000       0.42897000       0.35937830
    67  C          0.40535000       0.68433000       0.65117170
    68  C          0.59465000       0.31567000       0.34882830
    69  H          0.33660000       0.70550000       0.68910000
    70  H          0.66340000       0.29450000       0.31090000
    71  C          0.45915000       0.76623000       0.60634170
    72  C          0.54085000       0.23377000       0.39365830
    73  C          0.55995000       0.73673000       0.54951170
    74  C          0.44005000       0.26327000       0.45048830
    75  C          0.60875000       0.62433000       0.53818170
    76  C          0.39125000       0.37567000       0.46181830
    77  H          0.67700000       0.60350000       0.50010000
    78  H          0.32300000       0.39650000       0.49990000
    79  C          0.55565000       0.54293000       0.58354180
    80  C          0.44435000       0.45707000       0.41645820
    81  H          0.59010000       0.46710000       0.57580000
    82  H          0.40990000       0.53290000       0.42420000
    83  H          0.21840000      -0.01030000       0.86751700
    84  H          0.78160000       0.01030000       0.13248300
    85  H          0.10250000       0.73770000       0.01720000
    86  H          0.89750000       0.26230000       0.98280000
    87  Cl         0.00430190       0.61455900       0.37687600
    88  Cl        -0.00430190       0.38544100       0.62312400
    89  Cl         0.07883150       0.64104100       0.52265500
    90  Cl         0.92116850       0.35895900       0.47734500
    91  O          0.48643000       0.71558000      -0.00282890
    92  O          0.51357000       0.28442000       0.00282890
    93  O          0.26343000       0.64888830       0.05585110
    94  O          0.73657000       0.35111170       0.94414890
    95  N          0.34084000       0.46927000       0.14067160
    96  N          0.65916000       0.53073000       0.85932840
    97  C          0.56084000       0.55838000       0.07230140
    98  C          0.43916000       0.44162000       0.92769860
    99  C          0.74174000       0.55987000       0.05382160
   100  C          0.25826000       0.44013000       0.94617840
   101  H          0.77210000       0.61570000       0.02260000
   102  H          0.22790000       0.38430000       0.97740000
   103  C          0.87345000       0.48257000       0.08008170
   104  C          0.12655000       0.51743000       0.91991830
   105  H         -0.00760000       0.48590000       0.06770000
   106  H          0.00760000       0.51410000       0.93230000
   107  C          0.82645000       0.39877000       0.12569170
   108  C          0.17355000       0.60123000       0.87430830
   109  H          0.91570000       0.34480000       0.14350000
   110  H          0.08430000       0.65520000       0.85650000
   111  C          0.65304000       0.39307000       0.14525160
   112  C          0.34696000       0.60693000       0.85474840
   113  H          0.62610000       0.33560000       0.17600000
   114  H          0.37390000       0.66440000       0.82400000
   115  C          0.51434000       0.47347000       0.11941150
   116  C          0.48566000       0.52653000       0.88058850
   117  C          0.42494000       0.64318000       0.04199150
   118  C          0.57506000       0.35682000       0.95800850
   119  C          0.27864000       0.38417000       0.18437150
   120  C          0.72136000       0.61583000       0.81562850
   121  C          0.18565000       0.41127000       0.24280170
   122  C          0.81435000       0.58873000       0.75719830
   123  H          0.16500000       0.48600000       0.25370000
   124  H          0.83500000       0.51400000       0.74630000
   125  C          0.12315000       0.33017000       0.28501180
   126  C          0.87685000       0.66983000       0.71498820
   127  H          0.05740000       0.35120000       0.32350000
   128  H          0.94260000       0.64880000       0.67650000
   129  C          0.15535000       0.21757000       0.27177180
   130  C          0.84465000       0.78243000       0.72822820
   131  C          0.24465000       0.19177000       0.21169180
   132  C          0.75535000       0.80823000       0.78830820
   133  H          0.26380000       0.11740000       0.20030000
   134  H          0.73620000       0.88260000       0.79970000
   135  C          0.30545000       0.27387000       0.16857170
   136  C          0.69455000       0.72613000       0.83142830
   137  H          0.36480000       0.25440000       0.12870000
   138  H          0.63520000       0.74560000       0.87130000
   139  C          0.09947000       0.12917000       0.32222000
   140  C          0.90053000       0.87083000       0.67778000
   141  H          0.14520000       0.14030000       0.36360000
   142  H          0.85480000       0.85970000       0.63640000
   143  H          0.97050000       0.14440000       0.32830000
   144  H          0.02950000       0.85560000       0.67170000
   145  C          0.14888000       0.01556000       0.31122000
   146  C          0.85112000       0.98444000       0.68878000
   147  H          0.27440000       0.00400000       0.29690000
   148  H          0.72560000      -0.00400000       0.70310000
   149  H          0.08510000       0.00200000       0.27430000
   150  H          0.91490000      -0.00200000       0.72570000
   151  C          0.12245000       0.92437000       0.36553190
   152  C          0.87755000       0.07563000       0.63446810
   153  C          0.07535000       0.82537000       0.35062190
   154  C          0.92465000       0.17463000       0.64937810
   155  H          0.05240000       0.81670000       0.30750000
   156  H          0.94760000       0.18330000       0.69250000
   157  C          0.06125000       0.73837000       0.39822170
   158  C          0.93875000       0.26163000       0.60177830
   159  C          0.09555000       0.74967000       0.46216170
   160  C          0.90445000       0.25033000       0.53783830
   161  C          0.14005000       0.84867000       0.47819190
   162  C          0.85995000       0.15133000       0.52180810
   163  H          0.15940000       0.85800000       0.52160000
   164  H          0.84060000       0.14200000       0.47840000
   165  C          0.15605000       0.93407000       0.43032000
   166  C          0.84395000       0.06593000       0.56968000
   167  H          0.19010000       0.00020000       0.44140000
   168  H          0.80990000      -0.00020000       0.55860000
   169  H          0.39350000       0.76370000       0.97981800
   170  H          0.60650000       0.23630000       0.02018200
   171  H          0.26650000       0.51670000       0.13091700
   172  H          0.73350000       0.48330000       0.86908300
