data_XAFPAY01
_symmetry_space_group_name_H-M    'P1'
_symmetry_Int_Tables_number       1
loop_
_symmetry_equiv_pos_site_id
_symmetry_equiv_pos_as_xyz
1 x,y,z
_cell_length_a                   7.006113
_cell_length_b                   7.804715
_cell_length_c                   18.8934
_cell_angle_alpha                85.2774
_cell_angle_beta                 80.7534
_cell_angle_gamma                65.7693
loop_
_atom_site_label
_atom_site_type_symbol
_atom_site_fract_x
_atom_site_fract_y
_atom_site_fract_z
     1  Cl         0.73329100       0.58324200       0.49353400
     2  Cl         0.26670900       0.41675800       0.50646600
     3  Cl         0.93312900       0.77732100       0.36731500
     4  Cl         0.06687100       0.22267900       0.63268500
     5  O          0.07102000       0.19932000       0.00038800
     6  O          0.92898000       0.80068000      -0.00038800
     7  O          0.15592000       0.92878190       0.06211800
     8  O          0.84408000       0.07121810       0.93788200
     9  N          0.44693000       0.84303000       0.14933100
    10  N          0.55307000       0.15697000       0.85066900
    11  C          0.32793000       0.12913000       0.07626900
    12  C          0.67207000       0.87087000       0.92373100
    13  C          0.34093000       0.30083000       0.05578100
    14  C          0.65907000       0.69917000       0.94421900
    15  H          0.25510000       0.37890000       0.02330000
    16  H          0.74490000       0.62110000       0.97670000
    17  C          0.47684000       0.35723000       0.08225120
    18  C          0.52316000       0.64277000       0.91774880
    19  H          0.48170000       0.47270000       0.06850000
    20  H          0.51830000       0.52730000       0.93150000
    21  C          0.60694000       0.23883000       0.12983110
    22  C          0.39306000       0.76117000       0.87016890
    23  H          0.70080000       0.27510000       0.14750000
    24  H          0.29920000       0.72490000       0.85250000
    25  C          0.59923000       0.06903000       0.15115110
    26  C          0.40077000       0.93097000       0.84884890
    27  H          0.68830000      -0.00760000       0.18300000
    28  H          0.31170000       0.00760000       0.81700000
    29  C          0.45933000       0.00833000       0.12577100
    30  C          0.54067000      -0.00833000       0.87422900
    31  C          0.18063000       0.07573000       0.04646100
    32  C          0.81937000       0.92427000       0.95353900
    33  C          0.58633000       0.70003000       0.19089100
    34  C          0.41367000       0.29997000       0.80910900
    35  C          0.80274000       0.61953000       0.16828110
    36  C          0.19726000       0.38047000       0.83171890
    37  H          0.85970000       0.66400000       0.12670000
    38  H          0.14030000       0.33600000       0.87330000
    39  C          0.93343000       0.47353000       0.20746120
    40  C          0.06657000       0.52647000       0.79253880
    41  H          0.07820000       0.42220000       0.19220000
    42  H          0.92180000       0.57780000       0.80780000
    43  C          0.85363000       0.40153000       0.26916110
    44  C          0.14637000       0.59847000       0.73083890
    45  C          0.63914000       0.48333000       0.29073110
    46  C          0.36086000       0.51667000       0.70926890
    47  H          0.58180000       0.43850000       0.33210000
    48  H          0.41820000       0.56150000       0.66790000
    49  C          0.50603000       0.63123000       0.25224110
    50  C          0.49397000       0.36877000       0.74775890
    51  H          0.36150000       0.68400000       0.26810000
    52  H          0.63850000       0.31600000       0.73190000
    53  C         -0.00086000       0.23393000       0.30855150
    54  C          0.00086000       0.76607000       0.69144850
    55  H          0.91510000       0.20330000       0.34950000
    56  H          0.08490000       0.79670000       0.65050000
    57  H          0.05870000       0.12720000       0.27690000
    58  H          0.94130000       0.87280000       0.72310000
    59  C          0.17394000       0.25863000       0.33407140
    60  C          0.82606000       0.74137000       0.66592860
    61  H          0.11500000       0.36500000       0.36580000
    62  H          0.88500000       0.63500000       0.63420000
    63  H          0.25890000       0.28850000       0.29320000
    64  H          0.74110000       0.71150000       0.70680000
    65  C          0.31663000       0.08863000       0.37335110
    66  C          0.68337000       0.91137000       0.62664890
    67  C          0.53283000       0.01473000       0.35483110
    68  C          0.46717000      -0.01473000       0.64516890
    69  H          0.59270000       0.06970000       0.31730000
    70  H          0.40730000       0.93030000       0.68270000
    71  C          0.66263000       0.85977000       0.39116120
    72  C          0.33737000       0.14023000       0.60883880
    73  C          0.57623000       0.77687000       0.44696120
    74  C          0.42377000       0.22313000       0.55303880
    75  C          0.36193000       0.84837000       0.46643130
    76  C          0.63807000       0.15163000       0.53356870
    77  H          0.30280000       0.79300000       0.50400000
    78  H          0.69720000       0.20700000       0.49600000
    79  C          0.23313000       0.00343000       0.43010120
    80  C          0.76687000      -0.00343000       0.56989880
    81  H          0.08760000       0.05160000       0.44390000
    82  H          0.91240000       0.94840000       0.55610000
    83  H          0.36530000       0.80930000       0.13371100
    84  H          0.63470000       0.19070000       0.86628900
    85  H          0.98260000       0.15140000       0.97948600
    86  H          0.01740000       0.84860000       0.02051400
