data_XAMFEA01
_symmetry_space_group_name_H-M    'P1'
_symmetry_Int_Tables_number       1
loop_
_symmetry_equiv_pos_site_id
_symmetry_equiv_pos_as_xyz
1 x,y,z
_cell_length_a                   7.51952
_cell_length_b                   8.37233
_cell_length_c                   12.22634
_cell_angle_alpha                81.038919
_cell_angle_beta                 81.915718
_cell_angle_gamma                64.056517
loop_
_atom_site_label
_atom_site_type_symbol
_atom_site_fract_x
_atom_site_fract_y
_atom_site_fract_z
     1  O          0.87257000       0.73613000       0.72392000
     2  O          0.12743000       0.26387000       0.27608000
     3  O          0.91527000       0.88114000       0.57123000
     4  O          0.08473000       0.11886000       0.42877000
     5  O          0.45794000       0.30034000       0.91302000
     6  O          0.54206000       0.69966000       0.08698000
     7  O          0.65813000       0.15133000       0.78352000
     8  O          0.34187000       0.84867000       0.21648000
     9  O          0.81022000       0.60273000       0.48103150
    10  O          0.18978000       0.39727000       0.51896850
    11  O          0.55183000       0.83853000       0.44131190
    12  O          0.44817000       0.16147000       0.55868810
    13  N          0.80363000       0.41093000       0.67262170
    14  N          0.19637000       0.58907000       0.32737830
    15  H          0.87240000       0.43240000       0.61620000
    16  H          0.12760000       0.56760000       0.38380000
    17  N          0.97737000       0.77473000       0.65122000
    18  N          0.02263000       0.22527000       0.34878000
    19  N          0.53523000       0.28763000       0.81892000
    20  N          0.46477000       0.71237000       0.18108000
    21  N          0.63293000       0.69903000       0.49706160
    22  N          0.36707000       0.30097000       0.50293840
    23  C          0.19153000       0.68303000       0.65802000
    24  C          0.80847000       0.31697000       0.34198000
    25  C          0.26703000       0.54203000       0.73862000
    26  C          0.73297000       0.45797000       0.26138000
    27  H          0.18275000       0.50914400       0.79056200
    28  H          0.81725000       0.49085600       0.20943800
    29  C          0.46863000       0.45123000       0.74067190
    30  C          0.53137000       0.54877000       0.25932810
    31  C          0.60663000       0.49563000       0.66640180
    32  C          0.39337000       0.50437000       0.33359820
    33  C          0.51563000       0.63983000       0.58397170
    34  C          0.48437000       0.36017000       0.41602830
    35  C          0.31313000       0.73183000       0.58020190
    36  C          0.68687000       0.26817000       0.41979810
    37  H          0.25978200       0.82588900       0.52541500
    38  H          0.74021800       0.17411100       0.47458500
    39  C          0.90713000       0.32043000       0.76946190
    40  C          0.09287000       0.67957000       0.23053810
    41  C          0.84324000       0.39074000       0.87012000
    42  C          0.15676000       0.60926000       0.12988000
    43  H          0.72870700       0.49609300       0.87717300
    44  H          0.27129300       0.50390700       0.12282700
    45  C          0.95304000       0.30124000       0.96042000
    46  C          0.04696000       0.69876000       0.03958000
    47  H          0.91073100       0.34569900       0.02917800
    48  H          0.08926900       0.65430100       0.97082200
    49  C          0.12124000       0.14974000       0.94932000
    50  C          0.87876000       0.85026000       0.05068000
    51  H          0.19217200       0.09176900       0.01121800
    52  H          0.80782800       0.90823100      -0.01121800
    53  C          0.19063000       0.07863000       0.84992000
    54  C          0.80937000       0.92137000       0.15008000
    55  C          0.07923000       0.16693000       0.75792000
    56  C          0.92077000       0.83307000       0.24208000
    57  H          0.12173300       0.12172900       0.68935900
    58  H          0.87826700       0.87827100       0.31064100
    59  C          0.37714000       0.91266000       0.83643000
    60  C          0.62286000       0.08734000       0.16357000
    61  H          0.47238100       0.90827800       0.88285900
    62  H          0.52761900       0.09172200       0.11714100
    63  H          0.42995600       0.91271000       0.76023800
    64  H          0.57004400       0.08729000       0.23976200
    65  H          0.34902200       0.81017600       0.85752800
    66  H          0.65097800       0.18982400       0.14247200
