data_XAMFEA02
_symmetry_space_group_name_H-M    'P1'
_symmetry_Int_Tables_number       1
loop_
_symmetry_equiv_pos_site_id
_symmetry_equiv_pos_as_xyz
1 x,y,z
_cell_length_a                   29.9713
_cell_length_b                   9.05371
_cell_length_c                   5.11506
_cell_angle_alpha                90.0
_cell_angle_beta                 90.0
_cell_angle_gamma                90.0
loop_
_atom_site_label
_atom_site_type_symbol
_atom_site_fract_x
_atom_site_fract_y
_atom_site_fract_z
     1  O          0.33761100       0.11793000       0.68827000
     2  O          0.66238900       0.88207000       0.18827000
     3  O          0.83761100       0.38207000       0.68827000
     4  O          0.16238900       0.61793000       0.18827000
     5  O          0.30057100       0.03603000       0.01647000
     6  O          0.69942900       0.96397000       0.51647000
     7  O          0.80057100       0.46397000       0.01647000
     8  O          0.19942900       0.53603000       0.51647000
     9  O          0.43364110       0.76783000       0.25628000
    10  O          0.56635890       0.23217000       0.75628000
    11  O          0.93364110       0.73217000       0.25628000
    12  O          0.06635890       0.26783000       0.75628000
    13  O          0.39163110       0.60424000       0.06296000
    14  O          0.60836890       0.39576000       0.56296000
    15  O          0.89163110       0.89576000       0.06296000
    16  O          0.10836890       0.10424000       0.56296000
    17  O          0.27989800       0.37823000       0.74499000
    18  O          0.72010200       0.62177000       0.24499000
    19  O          0.77989800       0.12177000       0.74499000
    20  O          0.22010200       0.87823000       0.24499000
    21  O          0.26346100       0.52923000       0.05618000
    22  O          0.73653900       0.47077000       0.55618000
    23  O          0.76346100       0.97077000       0.05618000
    24  O          0.23653900       0.02923000       0.55618000
    25  N          0.35509900       0.43493000       0.49217000
    26  N          0.64490100       0.56507000      -0.00783000
    27  N          0.85509900       0.06507000       0.49217000
    28  N          0.14490100       0.93493000      -0.00783000
    29  H          0.33381100       0.37440000       0.55580000
    30  H          0.66618900       0.62560000       0.05580000
    31  H          0.83381100       0.12560000       0.55580000
    32  H          0.16618900       0.87440000       0.05580000
    33  N          0.32106900       0.01763000       0.81407000
    34  N          0.67893100       0.98237000       0.31407000
    35  N          0.82106900       0.48237000       0.81407000
    36  N          0.17893100       0.51763000       0.31407000
    37  N          0.40021120       0.68904000       0.23997000
    38  N          0.59978880       0.31096000       0.73997000
    39  N          0.90021120       0.81096000       0.23997000
    40  N          0.09978880       0.18904000       0.73997000
    41  N          0.28263900       0.49863000       0.85288000
    42  N          0.71736100       0.50137000       0.35288000
    43  N          0.78263900       0.00137000       0.85288000
    44  N          0.21736100      -0.00137000       0.35288000
    45  C          0.32762100       0.86753000       0.71887000
    46  C          0.67237900       0.13247000       0.21887000
    47  C          0.82762100       0.63247000       0.71887000
    48  C          0.17237900       0.36753000       0.21887000
    49  C          0.36004100       0.84274000       0.53598000
    50  C          0.63995900       0.15726000       0.03598000
    51  C          0.86004100       0.65726000       0.53598000
    52  C          0.13995900       0.34274000       0.03598000
    53  H          0.37663500       0.92068000       0.46855300
    54  H          0.62336500       0.07932000       0.96855300
    55  H          0.87663500       0.57932000       0.46855300
    56  H          0.12336500       0.42068000       0.96855300
    57  C          0.36767100       0.70034000       0.45327000
    58  C          0.63232900       0.29966000       0.95327000
    59  C          0.86767100       0.79966000       0.45327000
    60  C          0.13232900       0.20034000       0.95327000
    61  C          0.34453900       0.57583000       0.55087000
    62  C          0.65546100       0.42417000       0.05087000
    63  C          0.84453900       0.92417000       0.55087000
    64  C          0.15546100       0.07583000       0.05087000
    65  C          0.30983900       0.61314000       0.72868000
    66  C          0.69016100       0.38686000       0.22868000
    67  C          0.80983900       0.88686000       0.72868000
    68  C          0.19016100       0.11314000       0.22868000
    69  C          0.30189100       0.75533000       0.81377000
    70  C          0.69810900       0.24467000       0.31377000
    71  C          0.80189100       0.74467000       0.81377000
    72  C          0.19810900       0.25533000       0.31377000
    73  H          0.27934200       0.77444900       0.93396400
    74  H          0.72065800       0.22555100       0.43396400
    75  H          0.77934200       0.72555100       0.93396400
    76  H          0.22065800       0.27444900       0.43396400
    77  C          0.39822100       0.38113000       0.41717000
    78  C          0.60177900       0.61887000       0.91717000
    79  C          0.89822100       0.11887000       0.41717000
    80  C          0.10177900       0.88113000       0.91717000
    81  C          0.43598100       0.43293000       0.53827000
    82  C          0.56401900       0.56707000       0.03827000
    83  C          0.93598100       0.06707000       0.53827000
    84  C          0.06401900       0.93293000       0.03827000
    85  H          0.43411800       0.50543600       0.66647100
    86  H          0.56588200       0.49456400       0.16647100
    87  H          0.93411800      -0.00543600       0.66647100
    88  H          0.06588200       0.00543600       0.16647100
    89  C          0.47694100       0.37484000       0.46547000
    90  C          0.52305900       0.62516000       0.96547000
    91  C          0.97694100       0.12516000       0.46547000
    92  C          0.02305900       0.87484000       0.96547000
    93  H          0.50290500       0.40922000       0.54410700
    94  H          0.49709500       0.59078000       0.04410700
    95  H          0.00290500       0.09078000       0.54410700
    96  H         -0.00290500       0.90922000       0.04410700
    97  C          0.47934110       0.26694000       0.27827000
    98  C          0.52065890       0.73306000       0.77827000
    99  C          0.97934110       0.23306000       0.27827000
   100  C          0.02065890       0.76694000       0.77827000
   101  H          0.50709800       0.22937200       0.23146400
   102  H          0.49290200       0.77062800       0.73146400
   103  H          0.00709800       0.27062800       0.23146400
   104  H          0.99290200       0.72937200       0.73146400
   105  C          0.44186130       0.21304000       0.15787000
   106  C          0.55813870       0.78696000       0.65787000
   107  C          0.94186130       0.28696000       0.15787000
   108  C          0.05813870       0.71304000       0.65787000
   109  C          0.40065110       0.27244000       0.22908000
   110  C          0.59934890       0.72756000       0.72908000
   111  C          0.90065110       0.22756000       0.22908000
   112  C          0.09934890       0.77244000       0.72908000
   113  H          0.37472400       0.23852200       0.14913300
   114  H          0.62527600       0.76147800       0.64913300
   115  H          0.87472400       0.26147800       0.14913300
   116  H          0.12527600       0.73852200       0.64913300
   117  C          0.44504140       0.09484000       0.95101000
   118  C          0.55495860       0.90516000       0.45101000
   119  C          0.94504140       0.40516000       0.95101000
   120  C          0.05495860       0.59484000       0.45101000
   121  H          0.47474600       0.05519100       0.94856400
   122  H          0.52525400       0.94480900       0.44856400
   123  H          0.97474600       0.44480900       0.94856400
   124  H          0.02525400       0.55519100       0.44856400
   125  H          0.43822000       0.13671600       0.78332300
   126  H          0.56178000       0.86328400       0.28332300
   127  H          0.93822000       0.36328400       0.78332300
   128  H          0.06178000       0.63671600       0.28332300
   129  H          0.42418600       0.01735700      -0.01043300
   130  H          0.57581400       0.98264300       0.48956700
   131  H          0.92418600       0.48264300      -0.01043300
   132  H          0.07581400       0.51735700       0.48956700
