data_XAMFEA
_symmetry_space_group_name_H-M    'P1'
_symmetry_Int_Tables_number       1
loop_
_symmetry_equiv_pos_site_id
_symmetry_equiv_pos_as_xyz
1 x,y,z
_cell_length_a                   12.58007
_cell_length_b                   8.00144
_cell_length_c                   15.01568
_cell_angle_alpha                90.0
_cell_angle_beta                 110.7942
_cell_angle_gamma                90.0
loop_
_atom_site_label
_atom_site_type_symbol
_atom_site_fract_x
_atom_site_fract_y
_atom_site_fract_z
     1  O          0.40036170       0.44172000       0.41820130
     2  O          0.59963830       0.94172000       0.08179870
     3  O          0.59963830       0.55828000       0.58179870
     4  O          0.40036170       0.05828000       0.91820130
     5  O          0.50537190       0.22213000       0.46041160
     6  O          0.49462810       0.72213000       0.03958840
     7  O          0.49462810       0.77787000       0.53958840
     8  O          0.50537190       0.27787000       0.96041160
     9  O          0.15302000       0.59033000       0.58933180
    10  O          0.84698000       0.09033000       0.91066820
    11  O          0.84698000       0.40967000       0.41066820
    12  O          0.15302000       0.90967000       0.08933180
    13  O          0.05725190       0.37214000       0.60009140
    14  O          0.94274810       0.87214000       0.89990860
    15  O          0.94274810       0.62786000       0.39990860
    16  O          0.05725190       0.12786000       0.10009140
    17  O          0.33573000       0.86507000       0.73620180
    18  O          0.66427000       0.36507000       0.76379820
    19  O          0.66427000       0.13493000       0.26379820
    20  O          0.33573000       0.63493000       0.23620180
    21  O          0.50203000       0.91187000       0.73114180
    22  O          0.49797000       0.41187000       0.76885820
    23  O          0.49797000       0.08813000       0.26885820
    24  O          0.50203000       0.58813000       0.23114180
    25  N          0.22272000       0.15433000       0.73046150
    26  N          0.77728000       0.65433000       0.76953850
    27  N          0.77728000       0.84567000       0.26953850
    28  N          0.22272000       0.34567000       0.23046150
    29  H          0.23220000       0.05740000       0.75020000
    30  H          0.76780000       0.55740000       0.74980000
    31  H          0.76780000       0.94260000       0.24980000
    32  H          0.23220000       0.44260000       0.25020000
    33  N          0.43176180       0.31573000       0.46653140
    34  N          0.56823820       0.81573000       0.03346860
    35  N          0.56823820       0.68427000       0.53346860
    36  N          0.43176180       0.18427000       0.96653140
    37  N          0.14272000       0.44044000       0.59849150
    38  N          0.85728000       0.94044000       0.90150850
    39  N          0.85728000       0.55956000       0.40150850
    40  N          0.14272000       0.05956000       0.09849150
    41  N          0.40183000       0.94637000       0.71087160
    42  N          0.59817000       0.44637000       0.78912840
    43  N          0.59817000       0.05363000       0.28912840
    44  N          0.40183000       0.55363000       0.21087160
    45  C          0.37832000       0.27563000       0.53526150
    46  C          0.62168000       0.77563000       0.96473850
    47  C          0.62168000       0.72437000       0.46473850
    48  C          0.37832000       0.22437000       0.03526150
    49  C          0.29402000       0.37633000       0.54287150
    50  C          0.70598000       0.87633000       0.95712850
    51  C          0.70598000       0.62367000       0.45712850
    52  C          0.29402000       0.12367000       0.04287150
    53  H          0.27294300       0.47249300       0.50598300
    54  H          0.72705700       0.97249300      -0.00598300
    55  H          0.72705700       0.52750700       0.49401700
    56  H          0.27294300       0.02750700       0.00598300
    57  C          0.24092000       0.33513000       0.60465150
    58  C          0.75908000       0.83513000       0.89534850
    59  C          0.75908000       0.66487000       0.39534850
    60  C          0.24092000       0.16487000       0.10465150
    61  C          0.27022000       0.19373000       0.66516150
    62  C          0.72978000       0.69373000       0.83483850
    63  C          0.72978000       0.80627000       0.33483850
    64  C          0.27022000       0.30627000       0.16516150
    65  C          0.35792000       0.09523000       0.65254150
    66  C          0.64208000       0.59523000       0.84745850
    67  C          0.64208000       0.90477000       0.34745850
    68  C          0.35792000       0.40477000       0.15254150
    69  C          0.41082000       0.13403000       0.59036160
    70  C          0.58918000       0.63403000       0.90963840
    71  C          0.58918000       0.86597000       0.40963840
    72  C          0.41082000       0.36597000       0.09036160
    73  H          0.46814400       0.06576900       0.58517800
    74  H          0.53185600       0.56576900       0.91482200
    75  H          0.53185600       0.93423100       0.41482200
    76  H          0.46814400       0.43423100       0.08517800
    77  C          0.17832000       0.26223000       0.78384160
    78  C          0.82168000       0.76223000       0.71615840
    79  C          0.82168000       0.73777000       0.21615840
    80  C          0.17832000       0.23777000       0.28384160
    81  C          0.22172000       0.41933000       0.81006160
    82  C          0.77828000       0.91933000       0.68993840
    83  C          0.77828000       0.58067000       0.18993840
    84  C          0.22172000       0.08067000       0.31006160
    85  H          0.28036800       0.45800200       0.79143400
    86  H          0.71963200       0.95800200       0.70856600
    87  H          0.71963200       0.54199800       0.20856600
    88  H          0.28036800       0.04199800       0.29143400
    89  C          0.17812000       0.52253000       0.86500180
    90  C          0.82188000       0.02253000       0.63499820
    91  C          0.82188000       0.47747000       0.13499820
    92  C          0.17812000       0.97747000       0.36500180
    93  C          0.09392000       0.45804000       0.89351190
    94  C          0.90608000       0.95804000       0.60648810
    95  C          0.90608000       0.54196000       0.10648810
    96  C          0.09392000       0.04196000       0.39351190
    97  H          0.06414200       0.52379000       0.93010200
    98  H          0.93585800       0.02379000       0.56989800
    99  H          0.93585800       0.47621000       0.06989800
   100  H          0.06414200       0.97621000       0.43010200
   101  C          0.05303000       0.30024000       0.86952000
   102  C          0.94697000       0.80024000       0.63048000
   103  C          0.94697000       0.69976000       0.13048000
   104  C          0.05303000       0.19976000       0.36952000
   105  H         -0.00294900       0.25914700       0.89079700
   106  H          0.00294900       0.75914700       0.60920300
   107  H          0.00294900       0.74085300       0.10920300
   108  H         -0.00294900       0.24085300       0.39079700
   109  C          0.09392000       0.20104000       0.81380190
   110  C          0.90608000       0.70104000       0.68619810
   111  C          0.90608000       0.79896000       0.18619810
   112  C          0.09392000       0.29896000       0.31380190
   113  H          0.06501400       0.09399500       0.79658800
   114  H          0.93498600       0.59399500       0.70341200
   115  H          0.93498600       0.90600500       0.20341200
   116  H          0.06501400       0.40600500       0.29658800
   117  C          0.22203000       0.69534000       0.89113000
   118  C          0.77797000       0.19534000       0.60887000
   119  C          0.77797000       0.30466000       0.10887000
   120  C          0.22203000       0.80466000       0.39113000
   121  H          0.16192000       0.77405100       0.86263700
   122  H          0.83808000       0.27405100       0.63736300
   123  H          0.83808000       0.22594900       0.13736300
   124  H          0.16192000       0.72594900       0.36263700
   125  H          0.28310900       0.71566400       0.86830900
   126  H          0.71689100       0.21566400       0.63169100
   127  H          0.71689100       0.28433600       0.13169100
   128  H          0.28310900       0.78433600       0.36830900
   129  H          0.24918600       0.70748000       0.95909100
   130  H          0.75081400       0.20748000       0.54090900
   131  H          0.75081400       0.29252000       0.04090900
   132  H          0.24918600       0.79252000       0.45909100
