data_XAWBOQ03
_symmetry_space_group_name_H-M    'P1'
_symmetry_Int_Tables_number       1
loop_
_symmetry_equiv_pos_site_id
_symmetry_equiv_pos_as_xyz
1 x,y,z
_cell_length_a                   9.61038
_cell_length_b                   4.19424
_cell_length_c                   31.1943
_cell_angle_alpha                90.0
_cell_angle_beta                 91.7768
_cell_angle_gamma                90.0
loop_
_atom_site_label
_atom_site_type_symbol
_atom_site_fract_x
_atom_site_fract_y
_atom_site_fract_z
     1  O          0.68533180       0.96205000       0.50580600
     2  O          0.81466820       0.46205000       0.99419400
     3  O          0.31466820       0.03795000       0.49419400
     4  O          0.18533180       0.53795000       0.00580600
     5  H          0.62050900       0.05126200       0.49299100
     6  H          0.87949100       0.55126200       0.00700900
     7  H          0.37949100       0.94873800       0.50700900
     8  H          0.12050900       0.44873800       0.99299100
     9  O          0.51048170       0.75465000       0.54129500
    10  O         -0.01048170       0.25465000       0.95870500
    11  O          0.48951830       0.24535000       0.45870500
    12  O          0.01048170       0.74535000       0.04129500
    13  N          0.57142000       0.40965000       0.61130600
    14  N          0.92858000       0.90965000       0.88869400
    15  N          0.42858000       0.59035000       0.38869400
    16  N          0.07142000       0.09035000       0.11130600
    17  H          0.51151500       0.44794400       0.59089000
    18  H         -0.01151500       0.94794400       0.90911000
    19  H          0.48848500       0.55205600       0.40911000
    20  H          0.01151500       0.05205600       0.09089000
    21  C          0.70822000       0.46405000       0.60188700
    22  C          0.79178000       0.96405000       0.89811300
    23  C          0.29178000       0.53595000       0.39811300
    24  C          0.20822000       0.03595000       0.10188700
    25  C          0.74302000       0.64285000       0.56534700
    26  C          0.75698000       0.14285000       0.93465300
    27  C          0.25698000       0.35715000       0.43465300
    28  C          0.24302000       0.85715000       0.06534700
    29  C          0.88302000       0.68356000       0.55576700
    30  C          0.61698000       0.18356000       0.94423300
    31  C          0.11698000       0.31644000       0.44423300
    32  C          0.38302000       0.81644000       0.05576700
    33  H          0.90475100       0.79972900       0.53147100
    34  H          0.59524900       0.29972900       0.96852900
    35  H          0.09524900       0.20027100       0.46852900
    36  H          0.40475100       0.70027100       0.03147100
    37  C         -0.00958000       0.55806000       0.58091800
    38  C          0.50958000       0.05806000       0.91908200
    39  C          0.00958000       0.44194000       0.41908200
    40  C          0.49042000       0.94194000       0.08091800
    41  C          0.95313000       0.38166000       0.61641800
    42  C          0.54687000       0.88166000       0.88358200
    43  C          0.04687000       0.61834000       0.38358200
    44  C          0.45313000       0.11834000       0.11641800
    45  H          0.02313800       0.29205700       0.63376600
    46  H          0.47686200       0.79205700       0.86623400
    47  H          0.97686200       0.70794300       0.36623400
    48  H          0.52313800       0.20794300       0.13376600
    49  C          0.81753000       0.33426000       0.62692800
    50  C          0.68247000       0.83426000       0.87307200
    51  C          0.18247000       0.66574000       0.37307200
    52  C          0.31753000       0.16574000       0.12692800
    53  H          0.79762300       0.21410200       0.65103500
    54  H          0.70237700       0.71410200       0.84896500
    55  H          0.20237700       0.78589800       0.34896500
    56  H          0.29762300       0.28589800       0.15103500
    57  C          0.63672000       0.78746000       0.53712700
    58  C          0.86328000       0.28746000       0.96287300
    59  C          0.36328000       0.21254000       0.46287300
    60  C          0.13672000       0.71254000       0.03712700
    61  C          0.14043000       0.60758000       0.56996100
    62  C          0.35957000       0.10758000       0.93003900
    63  C          0.85957000       0.39242000       0.43003900
    64  C          0.64043000       0.89242000       0.06996100
    65  H          0.17043100       0.43473500       0.55230700
    66  H          0.32956900       0.93473500       0.94769300
    67  H          0.82956900       0.56526500       0.44769300
    68  H          0.67043100       0.06526500       0.05230700
    69  H          0.19684300       0.61435300       0.59587600
    70  H          0.30315700       0.11435300       0.90412400
    71  H          0.80315700       0.38564700       0.40412400
    72  H          0.69684300       0.88564700       0.09587600
    73  H          0.14943400       0.80489000       0.55472600
    74  H          0.35056600       0.30489000       0.94527400
    75  H          0.85056600       0.19511000       0.44527400
    76  H          0.64943400       0.69511000       0.05472600
    77  C          0.51622000       0.29946000       0.64991700
    78  C          0.98378000       0.79946000       0.85008300
    79  C          0.48378000       0.70054000       0.35008300
    80  C          0.01622000       0.20054000       0.14991700
    81  C          0.57082000       0.38496000       0.69003700
    82  C          0.92918000       0.88496000       0.80996300
    83  C          0.42918000       0.61504000       0.30996300
    84  C          0.07082000       0.11504000       0.19003700
    85  H          0.65050000       0.51045400       0.69191500
    86  H          0.84950000       0.01045400       0.80808500
    87  H          0.34950000       0.48954600       0.30808500
    88  H          0.15050000      -0.01045400       0.19191500
    89  C          0.50862000       0.28686000       0.72730700
    90  C         -0.00862000       0.78686000       0.77269300
    91  C          0.49138000       0.71314000       0.27269300
    92  C          0.00862000       0.21314000       0.22730700
    93  C          0.38963000       0.10306000       0.72395800
    94  C          0.11037000       0.60306000       0.77604200
    95  C          0.61037000       0.89694000       0.27604200
    96  C          0.88963000       0.39694000       0.22395800
    97  H          0.34652900       0.03540300       0.74864000
    98  H          0.15347100       0.53540300       0.75136000
    99  H          0.65347100       0.96459700       0.25136000
   100  H          0.84652900       0.46459700       0.24864000
   101  C          0.33443000       0.01937000       0.68436100
   102  C          0.16557000       0.51937000       0.81563900
   103  C          0.66557000      -0.01937000       0.31563900
   104  C          0.83443000       0.48063000       0.18436100
   105  H          0.25375600       0.89694100       0.68249200
   106  H          0.24624400       0.39694100       0.81750800
   107  H          0.74624400       0.10305900       0.31750800
   108  H          0.75375600       0.60305900       0.18249200
   109  C          0.39743000       0.11476000       0.64744800
   110  C          0.10257000       0.61476000       0.85255200
   111  C          0.60257000       0.88524000       0.35255200
   112  C          0.89743000       0.38524000       0.14744800
   113  H          0.35987200       0.05460400       0.62081600
   114  H          0.14012800       0.55460400       0.87918400
   115  H          0.64012800       0.94539600       0.37918400
   116  H          0.85987200       0.44539600       0.12081600
   117  C          0.56773000       0.39058000       0.77031800
   118  C          0.93227000       0.89058000       0.72968200
   119  C          0.43227000       0.60942000       0.22968200
   120  C          0.06773000       0.10942000       0.27031800
   121  H          0.51844000       0.57520900       0.77983700
   122  H          0.98156000       0.07520900       0.72016300
   123  H          0.48156000       0.42479100       0.22016300
   124  H          0.01844000       0.92479100       0.27983700
   125  H          0.66451700       0.44143000       0.76786400
   126  H          0.83548300       0.94143000       0.73213600
   127  H          0.33548300       0.55857000       0.23213600
   128  H          0.16451700       0.05857000       0.26786400
   129  H          0.55782600       0.22089900       0.79065800
   130  H          0.94217400       0.72089900       0.70934200
   131  H          0.44217400       0.77910100       0.20934200
   132  H          0.05782600       0.27910100       0.29065800
