data_XAWBOQ02
_symmetry_space_group_name_H-M    'P1'
_symmetry_Int_Tables_number       1
loop_
_symmetry_equiv_pos_site_id
_symmetry_equiv_pos_as_xyz
1 x,y,z
_cell_length_a                   7.27033
_cell_length_b                   11.79205
_cell_length_c                   15.95165
_cell_angle_alpha                111.3623
_cell_angle_beta                 91.1443
_cell_angle_gamma                91.9124
loop_
_atom_site_label
_atom_site_type_symbol
_atom_site_fract_x
_atom_site_fract_y
_atom_site_fract_z
     1  O          0.25773000       0.47629120       0.50234900
     2  O          0.74227000       0.52370880       0.49765100
     3  H          0.24467800       0.49599500       0.55668400
     4  H          0.75532200       0.50400500       0.44331600
     5  O          0.26242000       0.67649110       0.54032800
     6  O          0.73758000       0.32350890       0.45967200
     7  N          0.30462000       0.76536120       0.41019900
     8  N          0.69538000       0.23463880       0.58980100
     9  H          0.29041500       0.77375500       0.46549800
    10  H          0.70958500       0.22624500       0.53450200
    11  C          0.27783000       0.55052150       0.38495100
    12  C          0.72217000       0.44947850       0.61504900
    13  C          0.29672000       0.64627150       0.35159100
    14  C          0.70328000       0.35372850       0.64840900
    15  C          0.29973000       0.61191170       0.25734110
    16  C          0.70027000       0.38808830       0.74265890
    17  H          0.30977400       0.67189300       0.23248600
    18  H          0.69022600       0.32810700       0.76751400
    19  C          0.28793000       0.49150180       0.20146110
    20  C          0.71207000       0.50849820       0.79853890
    21  H          0.29077500       0.47270400       0.13961000
    22  H          0.70922500       0.52729600       0.86039000
    23  C          0.27203000       0.39650170       0.23307110
    24  C          0.72797000       0.60349830       0.76692890
    25  C          0.26653000       0.42904160       0.32498110
    26  C          0.73347000       0.57095840       0.67501890
    27  H          0.25483900       0.36766000       0.34839900
    28  H          0.74516100       0.63234000       0.65160100
    29  C          0.26553000       0.57420150       0.48164110
    30  C          0.73447000       0.42579850       0.51835890
    31  C          0.25934000       0.26466190       0.17083140
    32  C          0.74066000       0.73533810       0.82916860
    33  H          0.38076200       0.23698700       0.15428600
    34  H          0.61923800       0.76301300       0.84571400
    35  H          0.18748600       0.25669900       0.11767100
    36  H          0.81251400       0.74330100       0.88232900
    37  H          0.20162800       0.21635900       0.20090500
    38  H          0.79837200       0.78364100       0.79909500
    39  C          0.33162000       0.87622140       0.39693100
    40  C          0.66838000       0.12377860       0.60306900
    41  C          0.26033000       0.97811150       0.46186100
    42  C          0.73967000       0.02188850       0.53813900
    43  H          0.19368600       0.96773300       0.50791000
    44  H          0.80631400       0.03226700       0.49209000
    45  C          0.28513000       0.09418150       0.46032110
    46  C          0.71487000       0.90581850       0.53967890
    47  C          0.38433000       0.10755170       0.39074120
    48  C          0.61567000       0.89244830       0.60925880
    49  H          0.40206600       0.18440000       0.38768900
    50  H          0.59793400       0.81560000       0.61231100
    51  C          0.45633000       0.00833180       0.32645130
    52  C          0.54367000      -0.00833180       0.67354870
    53  H          0.52217800       0.01913100       0.28033600
    54  H          0.47782200       0.98086900       0.71966400
    55  C          0.43293000       0.89212170       0.32873110
    56  C          0.56707000       0.10787830       0.67126890
    57  H          0.48429800       0.82591900       0.28528000
    58  H          0.51570200       0.17408100       0.71472000
    59  C          0.20744000       0.20209170       0.53203150
    60  C          0.79256000       0.79790830       0.46796850
    61  H          0.13018600       0.24401700       0.50435800
    62  H          0.86981400       0.75598300       0.49564200
    63  H          0.30626200       0.25643500       0.56593900
    64  H          0.69373800       0.74356500       0.43406100
    65  H          0.13595700       0.17470800       0.57156000
    66  H          0.86404300       0.82529200       0.42844000
    67  O          0.27233000       0.73072110       0.71612800
    68  O          0.72767000       0.26927890       0.28387200
    69  H          0.26781700       0.71116200       0.66122300
    70  H          0.73218300       0.28883800       0.33877700
    71  O          0.22582000       0.53089110       0.67819800
    72  O          0.77418000       0.46910890       0.32180200
    73  N          0.19382000       0.44401130       0.81053900
    74  N          0.80618000       0.55598870       0.18946100
    75  H          0.17629400       0.43039800       0.75415400
    76  H          0.82370600       0.56960200       0.24584600
    77  C          0.20093000       0.56453150       0.86719110
    78  C          0.79907000       0.43546850       0.13280890
    79  C          0.22793000       0.65911150       0.83372100
    80  C          0.77207000       0.34088850       0.16627900
    81  C          0.23653000       0.78051160       0.89362110
    82  C          0.76347000       0.21948840       0.10637890
    83  H          0.25642400       0.84167700       0.87056800
    84  H          0.74357600       0.15832300       0.12943200
    85  C          0.21673000       0.81357170       0.98489110
    86  C          0.78327000       0.18642830       0.01510890
    87  C          0.18183000       0.71925170       0.01620120
    88  C          0.81817000       0.28074830       0.98379880
    89  H          0.16278300       0.73849800       0.07722900
    90  H          0.83721700       0.26150200       0.92277100
    91  C          0.17453000       0.59899170       0.96016110
    92  C          0.82547000       0.40100830       0.03983890
    93  H          0.15160600       0.53904500       0.98412500
    94  H          0.84839400       0.46095500       0.01587500
    95  C          0.24193000       0.63328150       0.73664110
    96  C          0.75807000       0.36671850       0.26335890
    97  C          0.23224000       0.94438190       0.04808130
    98  C          0.76776000       0.05561810       0.95191870
    99  H          0.11175700       0.97226200       0.06667900
   100  H          0.88824300       0.02773800       0.93332100
   101  H          0.28744600      -0.00655600       0.01796100
   102  H          0.71255400       0.00655600       0.98203900
   103  H          0.30733400       0.95097700       0.09997200
   104  H          0.69266600       0.04902300       0.90002800
   105  C          0.21173000       0.34061150       0.83351100
   106  C          0.78827000       0.65938850       0.16648900
   107  C          0.12062000       0.23250150       0.77933100
   108  C          0.87938000       0.76749850       0.22066900
   109  H          0.04478100       0.23241100       0.73166100
   110  H          0.95521900       0.76758900       0.26833900
   111  C          0.13943000       0.12503150       0.79422110
   112  C          0.86057000       0.87496850       0.20577890
   113  C          0.24953000       0.12803170       0.86702120
   114  C          0.75047000       0.87196830       0.13297880
   115  H          0.26183500       0.05735200       0.87935100
   116  H          0.73816500       0.94264800       0.12064900
   117  C          0.34073000       0.23424180       0.92115120
   118  C          0.65927000       0.76575820       0.07884880
   119  H          0.41379600       0.23460500       0.96977900
   120  H          0.58620400       0.76539500       0.03022100
   121  C          0.32533000       0.34045170       0.90432110
   122  C          0.67467000       0.65954830       0.09567890
   123  H          0.39055300       0.41130100       0.94018100
   124  H          0.60944700       0.58869900       0.05981900
   125  C          0.04523000       0.00844170       0.73223150
   126  C          0.95477000      -0.00844170       0.26776850
   127  H          0.91640400       0.02070700       0.72639300
   128  H          0.08359600       0.97929300       0.27360700
   129  H          0.06024500       0.94578100       0.75657900
   130  H          0.93975500       0.05421900       0.24342100
   131  H          0.09870100      -0.01566100       0.67410600
   132  H          0.90129900       0.01566100       0.32589400
