data_XAWBOQ01
_symmetry_space_group_name_H-M    'P1'
_symmetry_Int_Tables_number       1
loop_
_symmetry_equiv_pos_site_id
_symmetry_equiv_pos_as_xyz
1 x,y,z
_cell_length_a                   11.94635
_cell_length_b                   14.77946
_cell_length_c                   7.48083
_cell_angle_alpha                90.0
_cell_angle_beta                 106.0834
_cell_angle_gamma                90.0
loop_
_atom_site_label
_atom_site_type_symbol
_atom_site_fract_x
_atom_site_fract_y
_atom_site_fract_z
     1  O          0.59653110       0.55535100       0.20202000
     2  O          0.40346890       0.05535100       0.29798000
     3  O          0.40346890       0.44464900       0.79798000
     4  O          0.59653110       0.94464900       0.70202000
     5  H          0.59304800       0.52795800       0.10527800
     6  H          0.40695200       0.02795800       0.39472200
     7  H          0.40695200       0.47204200       0.89472200
     8  H          0.59304800       0.97204200       0.60527800
     9  O          0.40421110       0.54247900       0.09575180
    10  O          0.59578890       0.04247900       0.40424820
    11  O          0.59578890       0.45752100       0.90424820
    12  O          0.40421110       0.95752100       0.59575180
    13  N          0.27524130       0.61020120       0.30392000
    14  N          0.72475870       0.11020120       0.19608000
    15  N          0.72475870       0.38979880       0.69608000
    16  N          0.27524130       0.88979880       0.80392000
    17  H          0.28002400       0.59118500       0.19760500
    18  H          0.71997600       0.09118500       0.30239500
    19  H          0.71997600       0.40881500       0.80239500
    20  H          0.28002400       0.90881500       0.69760500
    21  C          0.48625140       0.60632100       0.39672000
    22  C          0.51374860       0.10632100       0.10328000
    23  C          0.51374860       0.39367900       0.60328000
    24  C          0.48625140       0.89367900       0.89672000
    25  C          0.37882150       0.62633110       0.43462000
    26  C          0.62117850       0.12633110       0.06538000
    27  C          0.62117850       0.37366890       0.56538000
    28  C          0.37882150       0.87366890       0.93462000
    29  C          0.38448160       0.66097120       0.61233000
    30  C          0.61551840       0.16097120       0.88767000
    31  C          0.61551840       0.33902880       0.38767000
    32  C          0.38448160       0.83902880       0.11233000
    33  H          0.31579800       0.67423200       0.64241400
    34  H          0.68420200       0.17423200       0.85758600
    35  H          0.68420200       0.32576800       0.35758600
    36  H          0.31579800       0.82576800       0.14241400
    37  C          0.48885180       0.67545120       0.74113000
    38  C          0.51114820       0.17545120       0.75887000
    39  C          0.51114820       0.32454880       0.25887000
    40  C          0.48885180       0.82454880       0.24113000
    41  H          0.48887600       0.69813000       0.85711900
    42  H          0.51112400       0.19813000       0.64288100
    43  H          0.51112400       0.30187000       0.14288100
    44  H          0.48887600       0.80187000       0.35711900
    45  C          0.59549160       0.65761110       0.70603000
    46  C          0.40450840       0.15761110       0.79397000
    47  C          0.40450840       0.34238890       0.29397000
    48  C          0.59549160       0.84238890       0.20603000
    49  C          0.59107150       0.62255110       0.53342000
    50  C          0.40892850       0.12255110       0.96658000
    51  C          0.40892850       0.37744890       0.46658000
    52  C          0.59107150       0.87744890       0.03342000
    53  H          0.66073100       0.60908900       0.50654700
    54  H          0.33926900       0.10908900      -0.00654700
    55  H          0.33926900       0.39091100       0.49345300
    56  H          0.66073100       0.89091100       0.00654700
    57  C          0.49048150       0.56582110       0.22023000
    58  C          0.50951850       0.06582110       0.27977000
    59  C          0.50951850       0.43417890       0.77977000
    60  C          0.49048150       0.93417890       0.72023000
    61  C          0.70914190       0.67364160       0.85043000
    62  C          0.29085810       0.17364160       0.64957000
    63  C          0.29085810       0.32635840       0.14957000
    64  C          0.70914190       0.82635840       0.35043000
    65  H          0.71543600       0.73641100       0.88473500
    66  H          0.28456400       0.23641100       0.61526500
    67  H          0.28456400       0.26358900       0.11526500
    68  H          0.71543600       0.76358900       0.38473500
    69  H          0.77233400       0.65742900       0.80061500
    70  H          0.22766600       0.15742900       0.69938500
    71  H          0.22766600       0.34257100       0.19938500
    72  H          0.77233400       0.84257100       0.30061500
    73  H          0.71232700       0.63734200       0.95808400
    74  H          0.28767300       0.13734200       0.54191600
    75  H          0.28767300       0.36265800       0.04191600
    76  H          0.71232700       0.86265800       0.45808400
    77  C          0.16147150       0.62097130       0.32232000
    78  C          0.83852850       0.12097130       0.17768000
    79  C          0.83852850       0.37902870       0.67768000
    80  C          0.16147150       0.87902870       0.82232000
    81  C          0.08353150       0.55001130       0.26932000
    82  C          0.91646850       0.05001130       0.23068000
    83  C          0.91646850       0.44998870       0.73068000
    84  C          0.08353150       0.94998870       0.76932000
    85  H          0.10896300       0.49654100       0.22787700
    86  H          0.89103700      -0.00345900       0.27212300
    87  H          0.89103700       0.50345900       0.77212300
    88  H          0.10896300       0.00345900       0.72787700
    89  C          0.96873850       0.55599140       0.27592000
    90  C          0.03126150       0.05599140       0.22408000
    91  C          0.03126150       0.44400860       0.72408000
    92  C          0.96873850       0.94400860       0.77592000
    93  C          0.93380830       0.63625160       0.34103000
    94  C          0.06619170       0.13625160       0.15897000
    95  C          0.06619170       0.36374840       0.65897000
    96  C          0.93380830       0.86374840       0.84103000
    97  H          0.85779600       0.64208400       0.34879500
    98  H          0.14220400       0.14208400       0.15120500
    99  H          0.14220400       0.35791600       0.65120500
   100  H          0.85779600       0.85791600       0.84879500
   101  C          0.01054190       0.70729160       0.39413000
   102  C         -0.01054190       0.20729160       0.10587000
   103  C         -0.01054190       0.29270840       0.60587000
   104  C          0.01054190       0.79270840       0.89413000
   105  H         -0.01453400       0.76041800       0.43739900
   106  H          0.01453400       0.26041800       0.06260100
   107  H          0.01453400       0.23958200       0.56260100
   108  H         -0.01453400       0.73958200       0.93739900
   109  C          0.12400180       0.70100140       0.38423000
   110  C          0.87599820       0.20100140       0.11577000
   111  C          0.87599820       0.29899860       0.61577000
   112  C          0.12400180       0.79899860       0.88423000
   113  H          0.17467200       0.74972600       0.41862100
   114  H          0.82532800       0.24972600       0.08137900
   115  H          0.82532800       0.25027400       0.58137900
   116  H          0.17467200       0.75027400       0.91862100
   117  C          0.88728820       0.47732180       0.22163000
   118  C          0.11271180       0.97732180       0.27837000
   119  C          0.11271180       0.52267820       0.77837000
   120  C          0.88728820       0.02267820       0.72163000
   121  H          0.91786200       0.43547000       0.14887900
   122  H          0.08213800       0.93547000       0.35112100
   123  H          0.08213800       0.56453000       0.85112100
   124  H          0.91786200       0.06453000       0.64887900
   125  H          0.81242400       0.49850500       0.14947100
   126  H          0.18757600      -0.00149500       0.35052900
   127  H          0.18757600       0.50149500       0.85052900
   128  H          0.81242400       0.00149500       0.64947100
   129  H          0.87940300       0.44757900       0.33151600
   130  H          0.12059700       0.94757900       0.16848400
   131  H          0.12059700       0.55242100       0.66848400
   132  H          0.87940300       0.05242100       0.83151600
