data_XAWBOQ
_symmetry_space_group_name_H-M    'P1'
_symmetry_Int_Tables_number       1
loop_
_symmetry_equiv_pos_site_id
_symmetry_equiv_pos_as_xyz
1 x,y,z
_cell_length_a                   12.006619
_cell_length_b                   15.8443
_cell_length_c                   6.951911
_cell_angle_alpha                90.0
_cell_angle_beta                 102.6632
_cell_angle_gamma                90.0
loop_
_atom_site_label
_atom_site_type_symbol
_atom_site_fract_x
_atom_site_fract_y
_atom_site_fract_z
     1  C          0.03652160       0.55590120       0.79543000
     2  C          0.96347840       0.05590120       0.70457000
     3  C          0.96347840       0.44409880       0.20457000
     4  C          0.03652160       0.94409880       0.29543000
     5  H          0.97420000       0.51710000       0.75800000
     6  H          0.02580000       0.01710000       0.74200000
     7  H          0.02580000       0.48290000       0.24200000
     8  H          0.97420000       0.98290000       0.25800000
     9  H          0.01740000       0.59770000       0.88270000
    10  H          0.98260000       0.09770000       0.61730000
    11  H          0.98260000       0.40230000       0.11730000
    12  H          0.01740000       0.90230000       0.38270000
    13  H          0.10350000       0.52580000       0.86110000
    14  H          0.89650000       0.02580000       0.63890000
    15  H          0.89650000       0.47420000       0.13890000
    16  H          0.10350000       0.97420000       0.36110000
    17  C          0.05917120       0.59825900       0.61452000
    18  C          0.94082880       0.09825900       0.88548000
    19  C          0.94082880       0.40174100       0.38548000
    20  C          0.05917120       0.90174100       0.11452000
    21  C          0.16692110       0.59439800       0.57182000
    22  C          0.83307890       0.09439800       0.92818000
    23  C          0.83307890       0.40560200       0.42818000
    24  C          0.16692110       0.90560200       0.07182000
    25  H          0.22480000       0.56480000       0.65570000
    26  H          0.77520000       0.06480000       0.84430000
    27  H          0.77520000       0.43520000       0.34430000
    28  H          0.22480000       0.93520000       0.15570000
    29  C          0.18968100       0.63397800       0.40562190
    30  C          0.81031900       0.13397800       0.09437810
    31  C          0.81031900       0.36602200       0.59437810
    32  C          0.18968100       0.86602200       0.90562190
    33  C          0.10387110       0.67818900       0.28042000
    34  C          0.89612890       0.17818900       0.21958000
    35  C          0.89612890       0.32181100       0.71958000
    36  C          0.10387110       0.82181100       0.78042000
    37  H          0.11870000       0.70600000       0.17080000
    38  H          0.88130000       0.20600000       0.32920000
    39  H          0.88130000       0.29400000       0.82920000
    40  H          0.11870000       0.79400000       0.67080000
    41  C         -0.00416120       0.68057100       0.32002000
    42  C          0.00416120       0.18057100       0.17998000
    43  C          0.00416120       0.31942900       0.67998000
    44  C         -0.00416120       0.81942900       0.82002000
    45  H          0.93750000       0.70900000       0.23440000
    46  H          0.06250000       0.20900000       0.26560000
    47  H          0.06250000       0.29100000       0.76560000
    48  H          0.93750000       0.79100000       0.73440000
    49  C          0.97352890       0.64133100       0.48472000
    50  C          0.02647110       0.14133100       0.01528000
    51  C          0.02647110       0.35866900       0.51528000
    52  C          0.97352890       0.85866900      -0.01528000
    53  H          0.90050000       0.64370000       0.50900000
    54  H          0.09950000       0.14370000      -0.00900000
    55  H          0.09950000       0.35630000       0.49100000
    56  H          0.90050000       0.85630000       0.00900000
    57  C          0.40213100       0.63409800       0.48157180
    58  C          0.59786900       0.13409800       0.01842820
    59  C          0.59786900       0.36590200       0.51842820
    60  C          0.40213100       0.86590200      -0.01842820
    61  C          0.50340100       0.60492700       0.42964180
    62  C          0.49659900       0.10492700       0.07035820
    63  C          0.49659900       0.39507300       0.57035820
    64  C          0.50340100       0.89507300       0.92964180
    65  C          0.60875110       0.61527800       0.56242000
    66  C          0.39124890       0.11527800       0.93758000
    67  C          0.39124890       0.38472200       0.43758000
    68  C          0.60875110       0.88472200       0.06242000
    69  H          0.67440000       0.59580000       0.52670000
    70  H          0.32560000       0.09580000       0.97330000
    71  H          0.32560000       0.40420000       0.47330000
    72  H          0.67440000       0.90420000       0.02670000
    73  C          0.61868110       0.65322900       0.74392000
    74  C          0.38131890       0.15322900       0.75608000
    75  C          0.38131890       0.34677100       0.25608000
    76  C          0.61868110       0.84677100       0.24392000
    77  C          0.51843120       0.68272800       0.79192000
    78  C          0.48156880       0.18272800       0.70808000
    79  C          0.48156880       0.31727200       0.20808000
    80  C          0.51843120       0.81727200       0.29192000
    81  H          0.52290000       0.70910000       0.91290000
    82  H          0.47710000       0.20910000       0.58710000
    83  H          0.47710000       0.29090000       0.08710000
    84  H          0.52290000       0.79090000       0.41290000
    85  C          0.41368110       0.67392800       0.66612000
    86  C          0.58631890       0.17392800       0.83388000
    87  C          0.58631890       0.32607200       0.33388000
    88  C          0.41368110       0.82607200       0.16612000
    89  H          0.34910000       0.69470000       0.70340000
    90  H          0.65090000       0.19470000       0.79660000
    91  H          0.65090000       0.30530000       0.29660000
    92  H          0.34910000       0.80530000       0.20340000
    93  C          0.50013100       0.56300800       0.23974180
    94  C          0.49986900       0.06300800       0.26025820
    95  C          0.49986900       0.43699200       0.76025820
    96  C          0.50013100       0.93699200       0.73974180
    97  C          0.73237140       0.66254140       0.88703000
    98  C          0.26762860       0.16254140       0.61297000
    99  C          0.26762860       0.33745860       0.11297000
   100  C          0.73237140       0.83745860       0.38703000
   101  H          0.77880000       0.61400000       0.87810000
   102  H          0.22120000       0.11400000       0.62190000
   103  H          0.22120000       0.38600000       0.12190000
   104  H          0.77880000       0.88600000       0.37810000
   105  H          0.72040000       0.66720000       0.01870000
   106  H          0.27960000       0.16720000       0.48130000
   107  H          0.27960000       0.33280000      -0.01870000
   108  H          0.72040000       0.83280000       0.51870000
   109  H          0.77010000       0.71240000       0.85520000
   110  H          0.22990000       0.21240000       0.64480000
   111  H          0.22990000       0.28760000       0.14480000
   112  H          0.77010000       0.78760000       0.35520000
   113  N          0.29754900       0.62666900       0.35521170
   114  N          0.70245100       0.12666900       0.14478830
   115  N          0.70245100       0.37333100       0.64478830
   116  N          0.29754900       0.87333100       0.85521170
   117  H          0.29730000       0.61660000       0.23360000
   118  H          0.70270000       0.11660000       0.26640000
   119  H          0.70270000       0.38340000       0.76640000
   120  H          0.29730000       0.88340000       0.73360000
   121  O          0.41201800       0.55153700       0.11190140
   122  O          0.58798200       0.05153700       0.38809860
   123  O          0.58798200       0.44846300       0.88809860
   124  O          0.41201800       0.94846300       0.61190140
   125  O          0.60050800       0.53790700       0.21346150
   126  O          0.39949200       0.03790700       0.28653850
   127  O          0.39949200       0.46209300       0.78653850
   128  O          0.60050800       0.96209300       0.71346150
   129  H          0.59150000       0.50750000       0.11580000
   130  H          0.40850000       0.00750000       0.38420000
   131  H          0.40850000       0.49250000       0.88420000
   132  H          0.59150000      -0.00750000       0.61580000
