data_XEBZIQ02
_symmetry_space_group_name_H-M    'P1'
_symmetry_Int_Tables_number       1
loop_
_symmetry_equiv_pos_site_id
_symmetry_equiv_pos_as_xyz
1 x,y,z
_cell_length_a                   7.8826413
_cell_length_b                   14.56552
_cell_length_c                   14.78933
_cell_angle_alpha                90.0
_cell_angle_beta                 95.333715
_cell_angle_gamma                90.0
loop_
_atom_site_label
_atom_site_type_symbol
_atom_site_fract_x
_atom_site_fract_y
_atom_site_fract_z
     1  Cl         0.24434700       0.33489300       0.40391300
     2  Cl         0.75565300       0.83489300       0.09608700
     3  Cl         0.75565300       0.66510700       0.59608700
     4  Cl         0.24434700       0.16510700       0.90391300
     5  Cl         0.05081700       0.34513400       0.78960400
     6  Cl         0.94918300       0.84513400       0.71039600
     7  Cl         0.94918300       0.65486600       0.21039600
     8  Cl         0.05081700       0.15486600       0.28960400
     9  F          0.32261130       0.35097700       0.62929700
    10  F          0.67738870       0.85097700       0.87070300
    11  F          0.67738870       0.64902300       0.37070300
    12  F          0.32261130       0.14902300       0.12929700
    13  F          0.04311140       0.35801800       0.57884800
    14  F          0.95688860       0.85801800       0.92115200
    15  F          0.95688860       0.64198200       0.42115200
    16  F          0.04311140       0.14198200       0.07884800
    17  O          0.47182000       0.03763100       0.68827110
    18  O          0.52818000       0.53763100       0.81172890
    19  O          0.52818000       0.96236900       0.31172890
    20  O          0.47182000       0.46236900       0.18827110
    21  O          0.30222000       0.04969100       0.55922120
    22  O          0.69778000       0.54969100       0.94077880
    23  O          0.69778000       0.95030900       0.44077880
    24  O          0.30222000       0.45030900       0.05922120
    25  N          0.23275190       0.47111100       0.52354100
    26  N          0.76724810       0.97111100       0.97645900
    27  N          0.76724810       0.52888900       0.47645900
    28  N          0.23275190       0.02888900       0.02354100
    29  N          0.15501190       0.47594100       0.68193110
    30  N          0.84498810       0.97594100       0.81806890
    31  N          0.84498810       0.52405900       0.31806890
    32  N          0.15501190       0.02405900       0.18193110
    33  C          0.33922000       0.59183130       0.44928130
    34  C          0.66078000       0.09183130       0.05071870
    35  C          0.66078000       0.40816870       0.55071870
    36  C          0.33922000       0.90816870       0.94928130
    37  H          0.37750000       0.65030000       0.43620000
    38  H          0.62250000       0.15030000       0.06380000
    39  H          0.62250000       0.34970000       0.56380000
    40  H          0.37750000       0.84970000       0.93620000
    41  C          0.33692000       0.51688140       0.39290140
    42  C          0.66308000       0.01688140       0.10709860
    43  C          0.66308000       0.48311860       0.60709860
    44  C          0.33692000       0.98311860       0.89290140
    45  H          0.37200000       0.51460000       0.33460000
    46  H          0.62800000       0.01460000       0.16540000
    47  H          0.62800000       0.48540000       0.66540000
    48  H          0.37200000       0.98540000       0.83460000
    49  C          0.27112000       0.44492130       0.44114130
    50  C          0.72888000       0.94492130       0.05885870
    51  C          0.72888000       0.55507870       0.55885870
    52  C          0.27112000       0.05507870       0.94114130
    53  C          0.09123000       0.45575140       0.76047140
    54  C          0.90877000       0.95575140       0.73952860
    55  C          0.90877000       0.54424860       0.23952860
    56  C          0.09123000       0.04424860       0.26047140
    57  C          0.06843000       0.53361150       0.81179140
    58  C          0.93157000       0.03361150       0.68820860
    59  C          0.93157000       0.46638850       0.18820860
    60  C          0.06843000       0.96638850       0.31179140
    61  H          0.02420000       0.53630000       0.86790000
    62  H          0.97580000       0.03630000       0.63210000
    63  H          0.97580000       0.46370000       0.13210000
    64  H          0.02420000       0.96370000       0.36790000
    65  C          0.12492000       0.60657140       0.76275130
    66  C          0.87508000       0.10657140       0.73724870
    67  C          0.87508000       0.39342860       0.23724870
    68  C          0.12492000       0.89342860       0.26275130
    69  H          0.12650000       0.66800000       0.78000000
    70  H          0.87350000       0.16800000       0.72000000
    71  H          0.87350000       0.33200000       0.22000000
    72  H          0.12650000       0.83200000       0.28000000
    73  C          0.24422000       0.61436120       0.60788120
    74  C          0.75578000       0.11436120       0.89211880
    75  C          0.75578000       0.38563880       0.39211880
    76  C          0.24422000       0.88563880       0.10788120
    77  C          0.27342000       0.56450120       0.53040130
    78  C          0.72658000       0.06450120       0.96959870
    79  C          0.72658000       0.43549880       0.46959870
    80  C          0.27342000       0.93549880       0.03040130
    81  C          0.17942000       0.57089120       0.68198130
    82  C          0.82058000       0.07089120       0.81801870
    83  C          0.82058000       0.42910880       0.31801870
    84  C          0.17942000       0.92910880       0.18198130
    85  C          0.28232000       0.71422120       0.61150130
    86  C          0.71768000       0.21422120       0.88849870
    87  C          0.71768000       0.28577880       0.38849870
    88  C          0.28232000       0.78577880       0.11150130
    89  C          0.38752000       0.75090130       0.68343130
    90  C          0.61248000       0.25090130       0.81656870
    91  C          0.61248000       0.24909870       0.31656870
    92  C          0.38752000       0.74909870       0.18343130
    93  H          0.43360000       0.71270000       0.72980000
    94  H          0.56640000       0.21270000       0.77020000
    95  H          0.56640000       0.28730000       0.27020000
    96  H          0.43360000       0.78730000       0.22980000
    97  C          0.42362000       0.84385130       0.68627130
    98  C          0.57638000       0.34385130       0.81372870
    99  C          0.57638000       0.15614870       0.31372870
   100  C          0.42362000       0.65614870       0.18627130
   101  H          0.49500000       0.86780000       0.73410000
   102  H          0.50500000       0.36780000       0.76590000
   103  H          0.50500000       0.13220000       0.26590000
   104  H          0.49500000       0.63220000       0.23410000
   105  C          0.35322000       0.90148120       0.61783130
   106  C          0.64678000       0.40148120       0.88216870
   107  C          0.64678000       0.09851880       0.38216870
   108  C          0.35322000       0.59851880       0.11783130
   109  C          0.24963000       0.86513130       0.54559130
   110  C          0.75037000       0.36513130       0.95440870
   111  C          0.75037000       0.13486870       0.45440870
   112  C          0.24963000       0.63486870       0.04559130
   113  H          0.20370000       0.90350000       0.49930000
   114  H          0.79630000       0.40350000       0.00070000
   115  H          0.79630000       0.09650000       0.50070000
   116  H          0.20370000       0.59650000      -0.00070000
   117  C          0.21442000       0.77207120       0.54216130
   118  C          0.78558000       0.27207120       0.95783870
   119  C          0.78558000       0.22792880       0.45783870
   120  C          0.21442000       0.72792880       0.04216130
   121  H          0.14530000       0.74800000       0.49350000
   122  H          0.85470000       0.24800000       0.00650000
   123  H          0.85470000       0.25200000       0.50650000
   124  H          0.14530000       0.75200000      -0.00650000
   125  C          0.38603000       0.00219130       0.62642140
   126  C          0.61397000       0.50219130       0.87357860
   127  C          0.61397000      -0.00219130       0.37357860
   128  C          0.38603000       0.49780870       0.12642140
   129  C          0.31645000       0.14887150       0.56672000
   130  C          0.68355000       0.64887150       0.93328000
   131  C          0.68355000       0.85112850       0.43328000
   132  C          0.31645000       0.35112850       0.06672000
   133  H          0.24450000       0.17710000       0.51860000
   134  H          0.75550000       0.67710000       0.98140000
   135  H          0.75550000       0.82290000       0.48140000
   136  H          0.24450000       0.32290000       0.01860000
   137  H          0.43250000       0.16680000       0.56220000
   138  H          0.56750000       0.66680000       0.93780000
   139  H          0.56750000       0.83320000       0.43780000
   140  H          0.43250000       0.33320000       0.06220000
   141  H          0.28170000       0.16820000       0.62420000
   142  H          0.71830000       0.66820000       0.87580000
   143  H          0.71830000       0.83180000       0.37580000
   144  H          0.28170000       0.33180000       0.12420000
   145  B          0.18723000       0.40885140       0.60344150
   146  B          0.81277000       0.90885140       0.89655850
   147  B          0.81277000       0.59114860       0.39655850
   148  B          0.18723000       0.09114860       0.10344150
