data_XEBZIQ
_symmetry_space_group_name_H-M    'P1'
_symmetry_Int_Tables_number       1
loop_
_symmetry_equiv_pos_site_id
_symmetry_equiv_pos_as_xyz
1 x,y,z
_cell_length_a                   19.7174
_cell_length_b                   9.3223
_cell_length_c                   18.0563
_cell_angle_alpha                90.0
_cell_angle_beta                 100.253
_cell_angle_gamma                90.0
loop_
_atom_site_label
_atom_site_type_symbol
_atom_site_fract_x
_atom_site_fract_y
_atom_site_fract_z
     1  Cl         0.59363200       0.88758500       0.51267200
     2  Cl         0.40636800       0.88758500       0.98732800
     3  Cl         0.09363200       0.38758500       0.51267200
     4  Cl         0.90636800       0.38758500       0.98732800
     5  Cl         0.40636800       0.11241500       0.48732800
     6  Cl         0.59363200       0.11241500       0.01267200
     7  Cl         0.90636800       0.61241500       0.48732800
     8  Cl         0.09363200       0.61241500       0.01267200
     9  Cl         0.42815200       0.50135500       0.27279200
    10  Cl         0.57184800       0.50135500       0.22720800
    11  Cl         0.92815200       0.00135500       0.27279200
    12  Cl         0.07184800       0.00135500       0.22720800
    13  Cl         0.57184800       0.49864500       0.72720800
    14  Cl         0.42815200       0.49864500       0.77279200
    15  Cl         0.07184800      -0.00135500       0.72720800
    16  Cl         0.92815200      -0.00135500       0.77279200
    17  B          0.47109900       0.68999190       0.42302100
    18  B          0.52890100       0.68999190       0.07697900
    19  B          0.97109900       0.18999190       0.42302100
    20  B          0.02890100       0.18999190       0.07697900
    21  B          0.52890100       0.31000810       0.57697900
    22  B          0.47109900       0.31000810       0.92302100
    23  B          0.02890100       0.81000810       0.57697900
    24  B          0.97109900       0.81000810       0.92302100
    25  F          0.53139500       0.62140100       0.41542500
    26  F          0.46860500       0.62140100       0.08457500
    27  F          0.03139500       0.12140100       0.41542500
    28  F          0.96860500       0.12140100       0.08457500
    29  F          0.46860500       0.37859900       0.58457500
    30  F          0.53139500       0.37859900       0.91542500
    31  F          0.96860500       0.87859900       0.58457500
    32  F          0.03139500       0.87859900       0.91542500
    33  F          0.45812500       0.80405100       0.37400500
    34  F          0.54187500       0.80405100       0.12599500
    35  F          0.95812500       0.30405100       0.37400500
    36  F          0.04187500       0.30405100       0.12599500
    37  F          0.54187500       0.19594900       0.62599500
    38  F          0.45812500       0.19594900       0.87400500
    39  F          0.04187500       0.69594900       0.62599500
    40  F          0.95812500       0.69594900       0.87400500
    41  O          0.15506600       0.41271120       0.73864600
    42  O          0.84493400       0.41271120       0.76135400
    43  O          0.65506600       0.91271120       0.73864600
    44  O          0.34493400       0.91271120       0.76135400
    45  O          0.84493400       0.58728880       0.26135400
    46  O          0.15506600       0.58728880       0.23864600
    47  O          0.34493400       0.08728880       0.26135400
    48  O          0.65506600       0.08728880       0.23864600
    49  O          0.15852600       0.65048120       0.75883600
    50  O          0.84147400       0.65048120       0.74116400
    51  O          0.65852600       0.15048120       0.75883600
    52  O          0.34147400       0.15048120       0.74116400
    53  O          0.84147400       0.34951880       0.24116400
    54  O          0.15852600       0.34951880       0.25883600
    55  O          0.34147400       0.84951880       0.24116400
    56  O          0.65852600       0.84951880       0.25883600
    57  N          0.40947700       0.58150140       0.40969700
    58  N          0.59052300       0.58150140       0.09030300
    59  N          0.90947700       0.08150140       0.40969700
    60  N          0.09052300       0.08150140       0.09030300
    61  N          0.59052300       0.41849860       0.59030300
    62  N          0.40947700       0.41849860       0.90969700
    63  N          0.09052300       0.91849860       0.59030300
    64  N          0.90947700       0.91849860       0.90969700
    65  N          0.47546700       0.74325130       0.50601700
    66  N          0.52453300       0.74325130      -0.00601700
    67  N          0.97546700       0.24325130       0.50601700
    68  N          0.02453300       0.24325130      -0.00601700
    69  N          0.52453300       0.25674870       0.49398300
    70  N          0.47546700       0.25674870       0.00601700
    71  N          0.02453300       0.75674870       0.49398300
    72  N          0.97546700       0.75674870       0.00601700
    73  C          0.44906800       0.78282170       0.62249900
    74  C          0.55093200       0.78282170       0.87750100
    75  C          0.94906800       0.28282170       0.62249900
    76  C          0.05093200       0.28282170       0.87750100
    77  C          0.55093200       0.21717830       0.37750100
    78  C          0.44906800       0.21717830       0.12249900
    79  C          0.05093200       0.71717830       0.37750100
    80  C          0.94906800       0.71717830       0.12249900
    81  H          0.42580000       0.78150000       0.66430000
    82  H          0.57420000       0.78150000       0.83570000
    83  H          0.92580000       0.28150000       0.66430000
    84  H          0.07420000       0.28150000       0.83570000
    85  H          0.57420000       0.21850000       0.33570000
    86  H          0.42580000       0.21850000       0.16430000
    87  H          0.07420000       0.71850000       0.33570000
    88  H          0.92580000       0.71850000       0.16430000
    89  C          0.51029900       0.84997180       0.61956900
    90  C          0.48970100       0.84997180       0.88043100
    91  C          0.01029900       0.34997180       0.61956900
    92  C          0.98970100       0.34997180       0.88043100
    93  C          0.48970100       0.15002820       0.38043100
    94  C          0.51029900       0.15002820       0.11956900
    95  C          0.98970100       0.65002820       0.38043100
    96  C          0.01029900       0.65002820       0.11956900
    97  H          0.53770000       0.90320000       0.65870000
    98  H          0.46230000       0.90320000       0.84130000
    99  H          0.03770000       0.40320000       0.65870000
   100  H          0.96230000       0.40320000       0.84130000
   101  H          0.46230000       0.09680000       0.34130000
   102  H          0.53770000       0.09680000       0.15870000
   103  H          0.96230000       0.59680000       0.34130000
   104  H          0.03770000       0.59680000       0.15870000
   105  C          0.52449800       0.82459170       0.54729900
   106  C          0.47550200       0.82459170       0.95270100
   107  C          0.02449800       0.32459170       0.54729900
   108  C          0.97550200       0.32459170       0.95270100
   109  C          0.47550200       0.17540830       0.45270100
   110  C          0.52449800       0.17540830       0.04729900
   111  C          0.97550200       0.67540830       0.45270100
   112  C          0.02449800       0.67540830       0.04729900
   113  C          0.38790800       0.50017170       0.34841900
   114  C          0.61209200       0.50017170       0.15158100
   115  C          0.88790800       0.00017170       0.34841900
   116  C          0.11209200       0.00017170       0.15158100
   117  C          0.61209200       0.49982830       0.65158100
   118  C          0.38790800       0.49982830       0.84841900
   119  C          0.11209200      -0.00017170       0.65158100
   120  C          0.88790800      -0.00017170       0.84841900
   121  C          0.32943900       0.42077170       0.35508900
   122  C          0.67056100       0.42077170       0.14491100
   123  C          0.82943900       0.92077170       0.35508900
   124  C          0.17056100       0.92077170       0.14491100
   125  C          0.67056100       0.57922830       0.64491100
   126  C          0.32943900       0.57922830       0.85508900
   127  C          0.17056100       0.07922830       0.64491100
   128  C          0.82943900       0.07922830       0.85508900
   129  H          0.30560000       0.35500000       0.31950000
   130  H          0.69440000       0.35500000       0.18050000
   131  H          0.80560000       0.85500000       0.31950000
   132  H          0.19440000       0.85500000       0.18050000
   133  H          0.69440000       0.64500000       0.68050000
   134  H          0.30560000       0.64500000       0.81950000
   135  H          0.19440000       0.14500000       0.68050000
   136  H          0.80560000       0.14500000       0.81950000
   137  C          0.31328800       0.45721170       0.42390900
   138  C          0.68671200       0.45721170       0.07609100
   139  C          0.81328800       0.95721170       0.42390900
   140  C          0.18671200       0.95721170       0.07609100
   141  C          0.68671200       0.54278830       0.57609100
   142  C          0.31328800       0.54278830       0.92390900
   143  C          0.18671200       0.04278830       0.57609100
   144  C          0.81328800       0.04278830       0.92390900
   145  H          0.27540000       0.42180000       0.44440000
   146  H          0.72460000       0.42180000       0.05560000
   147  H          0.77540000       0.92180000       0.44440000
   148  H          0.22460000       0.92180000       0.05560000
   149  H          0.72460000       0.57820000       0.55560000
   150  H          0.27540000       0.57820000       0.94440000
   151  H          0.22460000       0.07820000       0.55560000
   152  H          0.77540000       0.07820000       0.94440000
   153  C          0.37075800       0.62535160       0.52806900
   154  C          0.62924200       0.62535160       0.97193100
   155  C          0.87075800       0.12535160       0.52806900
   156  C          0.12924200       0.12535160       0.97193100
   157  C          0.62924200       0.37464840       0.47193100
   158  C          0.37075800       0.37464840       0.02806900
   159  C          0.12924200       0.87464840       0.47193100
   160  C          0.87075800       0.87464840       0.02806900
   161  C          0.36311800       0.55651160       0.45848900
   162  C          0.63688200       0.55651160       0.04151100
   163  C          0.86311800       0.05651160       0.45848900
   164  C          0.13688200       0.05651160       0.04151100
   165  C          0.63688200       0.44348840       0.54151100
   166  C          0.36311800       0.44348840       0.95848900
   167  C          0.13688200       0.94348840       0.54151100
   168  C          0.86311800       0.94348840       0.95848900
   169  C          0.42659800       0.71584160       0.55225900
   170  C          0.57340200       0.71584160       0.94774100
   171  C          0.92659800       0.21584160       0.55225900
   172  C          0.07340200       0.21584160       0.94774100
   173  C          0.57340200       0.28415840       0.44774100
   174  C          0.42659800       0.28415840       0.05225900
   175  C          0.07340200       0.78415840       0.44774100
   176  C          0.92659800       0.78415840       0.05225900
   177  C          0.31974800       0.60152160       0.57805800
   178  C          0.68025200       0.60152160       0.92194200
   179  C          0.81974800       0.10152160       0.57805800
   180  C          0.18025200       0.10152160       0.92194200
   181  C          0.68025200       0.39847840       0.42194200
   182  C          0.31974800       0.39847840       0.07805800
   183  C          0.18025200       0.89847840       0.42194200
   184  C          0.81974800       0.89847840       0.07805800
   185  C          0.30486800       0.46253170       0.59951900
   186  C          0.69513200       0.46253170       0.90048100
   187  C          0.80486800       0.96253170       0.59951900
   188  C          0.19513200       0.96253170       0.90048100
   189  C          0.69513200       0.53746830       0.40048100
   190  C          0.30486800       0.53746830       0.09951900
   191  C          0.19513200       0.03746830       0.40048100
   192  C          0.80486800       0.03746830       0.09951900
   193  H          0.32670000       0.38240000       0.58120000
   194  H          0.67330000       0.38240000       0.91880000
   195  H          0.82670000       0.88240000       0.58120000
   196  H          0.17330000       0.88240000       0.91880000
   197  H          0.67330000       0.61760000       0.41880000
   198  H          0.32670000       0.61760000       0.08120000
   199  H          0.17330000       0.11760000       0.41880000
   200  H          0.82670000       0.11760000       0.08120000
   201  C          0.25837800       0.44218170       0.64738900
   202  C          0.74162200       0.44218170       0.85261100
   203  C          0.75837800       0.94218170       0.64738900
   204  C          0.24162200       0.94218170       0.85261100
   205  C          0.74162200       0.55781830       0.35261100
   206  C          0.25837800       0.55781830       0.14738900
   207  C          0.24162200       0.05781830       0.35261100
   208  C          0.75837800       0.05781830       0.14738900
   209  H          0.24850000       0.34770000       0.66200000
   210  H          0.75150000       0.34770000       0.83800000
   211  H          0.74850000       0.84770000       0.66200000
   212  H          0.25150000       0.84770000       0.83800000
   213  H          0.75150000       0.65230000       0.33800000
   214  H          0.24850000       0.65230000       0.16200000
   215  H          0.25150000       0.15230000       0.33800000
   216  H          0.74850000       0.15230000       0.16200000
   217  C          0.22570800       0.55854170       0.67454900
   218  C          0.77429200       0.55854170       0.82545100
   219  C          0.72570800       0.05854170       0.67454900
   220  C          0.27429200       0.05854170       0.82545100
   221  C          0.77429200       0.44145830       0.32545100
   222  C          0.22570800       0.44145830       0.17454900
   223  C          0.27429200       0.94145830       0.32545100
   224  C          0.72570800       0.94145830       0.17454900
   225  C          0.24008800       0.69692170       0.65297900
   226  C          0.75991200       0.69692170       0.84702100
   227  C          0.74008800       0.19692170       0.65297900
   228  C          0.25991200       0.19692170       0.84702100
   229  C          0.75991200       0.30307830       0.34702100
   230  C          0.24008800       0.30307830       0.15297900
   231  C          0.25991200       0.80307830       0.34702100
   232  C          0.74008800       0.80307830       0.15297900
   233  H          0.21790000       0.77680000       0.67110000
   234  H          0.78210000       0.77680000       0.82890000
   235  H          0.71790000       0.27680000       0.67110000
   236  H          0.28210000       0.27680000       0.82890000
   237  H          0.78210000       0.22320000       0.32890000
   238  H          0.21790000       0.22320000       0.17110000
   239  H          0.28210000       0.72320000       0.32890000
   240  H          0.71790000       0.72320000       0.17110000
   241  C          0.28690800       0.71799170       0.60488900
   242  C          0.71309200       0.71799170       0.89511100
   243  C          0.78690800       0.21799170       0.60488900
   244  C          0.21309200       0.21799170       0.89511100
   245  C          0.71309200       0.28200830       0.39511100
   246  C          0.28690800       0.28200830       0.10488900
   247  C          0.21309200       0.78200830       0.39511100
   248  C          0.78690800       0.78200830       0.10488900
   249  H          0.29660000       0.81250000       0.59020000
   250  H          0.70340000       0.81250000       0.90980000
   251  H          0.79660000       0.31250000       0.59020000
   252  H          0.20340000       0.31250000       0.90980000
   253  H          0.70340000       0.18750000       0.40980000
   254  H          0.29660000       0.18750000       0.09020000
   255  H          0.20340000       0.68750000       0.40980000
   256  H          0.79660000       0.68750000       0.09020000
   257  C          0.17622800       0.53058170       0.72663900
   258  C          0.82377200       0.53058170       0.77336100
   259  C          0.67622800       0.03058170       0.72663900
   260  C          0.32377200       0.03058170       0.77336100
   261  C          0.82377200       0.46941830       0.27336100
   262  C          0.17622800       0.46941830       0.22663900
   263  C          0.32377200       0.96941830       0.27336100
   264  C          0.67622800       0.96941830       0.22663900
   265  C          0.10672900       0.63262000       0.80568100
   266  C          0.89327100       0.63262000       0.69431900
   267  C          0.60672900       0.13262000       0.80568100
   268  C          0.39327100       0.13262000       0.69431900
   269  C          0.89327100       0.36738000       0.19431900
   270  C          0.10672900       0.36738000       0.30568100
   271  C          0.39327100       0.86738000       0.19431900
   272  C          0.60672900       0.86738000       0.30568100
   273  H          0.06510000       0.59040000       0.77590000
   274  H          0.93490000       0.59040000       0.72410000
   275  H          0.56510000       0.09040000       0.77590000
   276  H          0.43490000       0.09040000       0.72410000
   277  H          0.93490000       0.40960000       0.22410000
   278  H          0.06510000       0.40960000       0.27590000
   279  H          0.43490000       0.90960000       0.22410000
   280  H          0.56510000       0.90960000       0.27590000
   281  H          0.09550000       0.72630000       0.82500000
   282  H          0.90450000       0.72630000       0.67500000
   283  H          0.59550000       0.22630000       0.82500000
   284  H          0.40450000       0.22630000       0.67500000
   285  H          0.90450000       0.27370000       0.17500000
   286  H          0.09550000       0.27370000       0.32500000
   287  H          0.40450000       0.77370000       0.17500000
   288  H          0.59550000       0.77370000       0.32500000
   289  H          0.12450000       0.56910000       0.84800000
   290  H          0.87550000       0.56910000       0.65200000
   291  H          0.62450000       0.06910000       0.84800000
   292  H          0.37550000       0.06910000       0.65200000
   293  H          0.87550000       0.43090000       0.15200000
   294  H          0.12450000       0.43090000       0.34800000
   295  H          0.37550000       0.93090000       0.15200000
   296  H          0.62450000       0.93090000       0.34800000
