data_XEBZIQ01
_symmetry_space_group_name_H-M    'P1'
_symmetry_Int_Tables_number       1
loop_
_symmetry_equiv_pos_site_id
_symmetry_equiv_pos_as_xyz
1 x,y,z
_cell_length_a                   7.83123
_cell_length_b                   10.30135
_cell_length_c                   10.46184
_cell_angle_alpha                96.5772
_cell_angle_beta                 101.7392
_cell_angle_gamma                97.0262
loop_
_atom_site_label
_atom_site_type_symbol
_atom_site_fract_x
_atom_site_fract_y
_atom_site_fract_z
     1  Cl         0.46037600       0.21096500       0.41254400
     2  Cl         0.53962400       0.78903500       0.58745600
     3  Cl         0.16042600       0.79502600       0.70665500
     4  Cl         0.83957400       0.20497400       0.29334500
     5  F          0.22513140       0.98418900       0.50164100
     6  F          0.77486860       0.01581100       0.49835900
     7  F          0.42395130       0.07451100       0.69207100
     8  F          0.57604870       0.92548900       0.30792900
     9  O          0.68028160       0.74226120       0.95425120
    10  O          0.31971840       0.25773880       0.04574880
    11  O          0.43264160       0.59564130       0.87819140
    12  O          0.56735840       0.40435870       0.12180860
    13  N          0.24188180       0.21789140       0.57784130
    14  N          0.75811820       0.78210860       0.42215870
    15  N          0.11551180       0.04681140       0.69639140
    16  N          0.88448820       0.95318860       0.30360860
    17  C          0.32292000       0.28211170       0.49639160
    18  C          0.67708000       0.71788830       0.50360840
    19  C          0.28132000       0.41051180       0.49386170
    20  C          0.71868000       0.58948820       0.50613830
    21  H          0.32262100       0.47438300       0.44416800
    22  H          0.67737900       0.52561700       0.55583200
    23  C          0.16852000       0.42529170       0.57800160
    24  C          0.83148000       0.57470830       0.42199840
    25  H          0.11731700       0.50214600       0.59740600
    26  H          0.88268300       0.49785400       0.40259400
    27  C          0.14252000       0.30574160       0.63026160
    28  C          0.85748000       0.69425840       0.36973840
    29  C          0.03142000       0.26639160       0.71258150
    30  C          0.96858000       0.73360840       0.28741850
    31  C          0.01902000       0.13848160       0.74561160
    32  C         -0.01902000       0.86151840       0.25438840
    33  C          0.91582000       0.07611170       0.82376170
    34  C          0.08418000       0.92388830       0.17623830
    35  H          0.83865600       0.11585400       0.87017700
    36  H          0.16134400       0.88414600       0.12982300
    37  C          0.94732000       0.94708820       0.82043180
    38  C          0.05268000       0.05291180       0.17956820
    39  H          0.89600200       0.88078300       0.86307400
    40  H          0.10399800       0.11921700       0.13692600
    41  C          0.07002000       0.93374830       0.74160180
    42  C          0.92998000       0.06625170       0.25839820
    43  C          0.92062000       0.35988160       0.76083150
    44  C          0.07938000       0.64011840       0.23916850
    45  C         -0.00428000       0.48712160       0.82390160
    46  C          0.00428000       0.51287840       0.17609840
    47  H          0.11891400       0.51471500       0.83611400
    48  H          0.88108600       0.48528500       0.16388600
    49  C          0.89052000       0.57304160       0.86861160
    50  C          0.10948000       0.42695840       0.13138840
    51  H          0.94215000       0.65931900       0.91167400
    52  H          0.05785000       0.34068100       0.08832600
    53  C          0.70892000       0.53354160       0.85074160
    54  C          0.29108000       0.46645840       0.14925840
    55  C          0.63412000       0.40676160       0.78796160
    56  C          0.36588000       0.59323840       0.21203840
    57  H          0.51083700       0.37953900       0.77584700
    58  H          0.48916300       0.62046100       0.22415300
    59  C          0.73822000       0.31994160       0.74298160
    60  C          0.26178000       0.68005840       0.25701840
    61  H          0.68633000       0.23362600       0.70019700
    62  H          0.31367000       0.76637400       0.29980300
    63  C          0.59052000       0.62393170       0.89488160
    64  C          0.40948000       0.37606830       0.10511840
    65  C          0.57433000       0.83974190      -0.00838000
    66  C          0.42567000       0.16025810       0.00838000
    67  H          0.49817600       0.86047100       0.91226500
    68  H          0.50182400       0.13952900       0.08773500
    69  H          0.65176500       0.92024400       0.03873600
    70  H          0.34823500       0.07975600       0.96126400
    71  H          0.50123500       0.80448700       0.04910200
    72  H          0.49876500       0.19551300       0.95089800
    73  B          0.25812000       0.07529180       0.61359190
    74  B          0.74188000       0.92470820       0.38640810
