data_XILPUD
_symmetry_space_group_name_H-M    'P1'
_symmetry_Int_Tables_number       1
loop_
_symmetry_equiv_pos_site_id
_symmetry_equiv_pos_as_xyz
1 x,y,z
_cell_length_a                   7.4541
_cell_length_b                   8.9912
_cell_length_c                   19.4774
_cell_angle_alpha                90.0
_cell_angle_beta                 90.0
_cell_angle_gamma                90.0
loop_
_atom_site_label
_atom_site_type_symbol
_atom_site_fract_x
_atom_site_fract_y
_atom_site_fract_z
     1  N          0.08783000      -0.00725190       0.37531100
     2  N          0.41217000       0.00725190       0.87531100
     3  N          0.91217000       0.49274810       0.12468900
     4  N          0.58783000       0.50725190       0.62468900
     5  N          0.91217000       0.00725190       0.62468900
     6  N          0.58783000      -0.00725190       0.12468900
     7  N          0.08783000       0.50725190       0.87531100
     8  N          0.41217000       0.49274810       0.37531100
     9  N          0.28593000       0.17522000       0.41359110
    10  N          0.21407000       0.82478000       0.91359110
    11  N          0.71407000       0.67522000       0.08640890
    12  N          0.78593000       0.32478000       0.58640890
    13  N          0.71407000       0.82478000       0.58640890
    14  N          0.78593000       0.17522000       0.08640890
    15  N          0.28593000       0.32478000       0.91359110
    16  N          0.21407000       0.67522000       0.41359110
    17  H          0.32040000       0.26830000       0.40671400
    18  H          0.17960000       0.73170000       0.90671400
    19  H          0.67960000       0.76830000       0.09328600
    20  H          0.82040000       0.23170000       0.59328600
    21  H          0.67960000       0.73170000       0.59328600
    22  H          0.82040000       0.26830000       0.09328600
    23  H          0.32040000       0.23170000       0.90671400
    24  H          0.17960000       0.76830000       0.40671400
    25  C          0.14013000       0.13532000       0.37640110
    26  C          0.35987000       0.86468000       0.87640110
    27  C          0.85987000       0.63532000       0.12359890
    28  C          0.64013000       0.36468000       0.62359890
    29  C          0.85987000       0.86468000       0.62359890
    30  C          0.64013000       0.13532000       0.12359890
    31  C          0.14013000       0.36468000       0.87640110
    32  C          0.35987000       0.63532000       0.37640110
    33  C          0.05253000       0.24433000       0.33708130
    34  C          0.44747000       0.75567000       0.83708130
    35  C          0.94747000       0.74433000       0.16291870
    36  C          0.55253000       0.25567000       0.66291870
    37  C          0.94747000       0.75567000       0.66291870
    38  C          0.55253000       0.24433000       0.16291870
    39  C          0.05253000       0.25567000       0.83708130
    40  C          0.44747000       0.74433000       0.33708130
    41  H          0.08140000       0.34540000       0.34351400
    42  H          0.41860000       0.65460000       0.84351400
    43  H          0.91860000       0.84540000       0.15648600
    44  H          0.58140000       0.15460000       0.65648600
    45  H          0.91860000       0.65460000       0.65648600
    46  H          0.58140000       0.34540000       0.15648600
    47  H          0.08140000       0.15460000       0.84351400
    48  H          0.41860000       0.84540000       0.34351400
    49  C          0.91287000       0.20303000       0.29617140
    50  C          0.58713000       0.79697000       0.79617140
    51  C          0.08713000       0.70303000       0.20382860
    52  C          0.41287000       0.29697000       0.70382860
    53  C          0.08713000       0.79697000       0.70382860
    54  C          0.41287000       0.20303000       0.20382860
    55  C          0.91287000       0.29697000       0.79617140
    56  C          0.58713000       0.70303000       0.29617140
    57  H          0.85270000       0.27730000       0.26321400
    58  H          0.64730000       0.72270000       0.76321400
    59  H          0.14730000       0.77730000       0.23678600
    60  H          0.35270000       0.22270000       0.73678600
    61  H          0.14730000       0.72270000       0.73678600
    62  H          0.35270000       0.27730000       0.23678600
    63  H          0.85270000       0.22270000       0.76321400
    64  H          0.64730000       0.77730000       0.26321400
    65  C          0.85736000       0.05803000       0.29494140
    66  C          0.64264000       0.94197000       0.79494140
    67  C          0.14264000       0.55803000       0.20505860
    68  C          0.35736000       0.44197000       0.70505860
    69  C          0.14264000       0.94197000       0.70505860
    70  C          0.35736000       0.05803000       0.20505860
    71  C          0.85736000       0.44197000       0.79494140
    72  C          0.64264000       0.55803000       0.29494140
    73  H          0.74360000       0.03530000       0.26821500
    74  H          0.75640000       0.96470000       0.76821500
    75  H          0.25640000       0.53530000       0.23178500
    76  H          0.24360000       0.46470000       0.73178500
    77  H          0.25640000       0.96470000       0.73178500
    78  H          0.24360000       0.03530000       0.23178500
    79  H          0.74360000       0.46470000       0.76821500
    80  H          0.75640000       0.53530000       0.26821500
    81  C          0.94826000       0.95957000       0.33527140
    82  C          0.55174000       0.04043000       0.83527140
    83  C          0.05174000       0.45957000       0.16472860
    84  C          0.44826000       0.54043000       0.66472860
    85  C          0.05174000       0.04043000       0.66472860
    86  C          0.44826000       0.95957000       0.16472860
    87  C          0.94826000       0.54043000       0.83527140
    88  C          0.55174000       0.45957000       0.33527140
    89  H          0.91570000       0.85170000       0.33381200
    90  H          0.58430000       0.14830000       0.83381200
    91  H          0.08430000       0.35170000       0.16618800
    92  H          0.41570000       0.64830000       0.66618800
    93  H          0.08430000       0.14830000       0.66618800
    94  H          0.41570000       0.85170000       0.16618800
    95  H          0.91570000       0.64830000       0.83381200
    96  H          0.58430000       0.35170000       0.33381200
    97  C          0.39143000       0.08532000       0.45716120
    98  C          0.10857000       0.91468000       0.95716120
    99  C          0.60857000       0.58532000       0.04283880
   100  C          0.89143000       0.41468000       0.54283880
   101  C          0.60857000       0.91468000       0.54283880
   102  C          0.89143000       0.08532000       0.04283880
   103  C          0.39143000       0.41468000       0.95716120
   104  C          0.10857000       0.58532000       0.45716120
   105  C          0.57553000       0.10043000       0.45593130
   106  C          0.92447000       0.89957000       0.95593130
   107  C          0.42447000       0.60043000       0.04406870
   108  C          0.07553000       0.39957000       0.54406870
   109  C          0.42447000       0.89957000       0.54406870
   110  C          0.07553000       0.10043000       0.04406870
   111  C          0.57553000       0.39957000       0.95593130
   112  C          0.92447000       0.60043000       0.45593130
   113  H          0.62540000       0.18640000       0.42111600
   114  H          0.87460000       0.81360000       0.92111600
   115  H          0.37460000       0.68640000       0.07888400
   116  H          0.12540000       0.31360000       0.57888400
   117  H          0.37460000       0.81360000       0.57888400
   118  H          0.12540000       0.18640000       0.07888400
   119  H          0.62540000       0.31360000       0.92111600
   120  H          0.87460000       0.68640000       0.42111600
   121  C          0.31713000       0.98397000       0.50174140
   122  C          0.18287000       0.01603000       0.00174140
   123  C          0.68287000       0.48397000      -0.00174140
   124  C          0.81713000       0.51603000       0.49825860
   125  C          0.68287000       0.01603000       0.49825860
   126  C          0.81713000       0.98397000      -0.00174140
   127  C          0.31713000       0.51603000       0.00174140
   128  C          0.18287000       0.48397000       0.50174140
   129  H          0.18540000       0.97270000       0.50341500
   130  H          0.31460000       0.02730000       0.00341500
   131  H          0.81460000       0.47270000      -0.00341500
   132  H          0.68540000       0.52730000       0.49658500
   133  H          0.81460000       0.02730000       0.49658500
   134  H          0.68540000       0.97270000      -0.00341500
   135  H          0.18540000       0.52730000       0.00341500
   136  H          0.31460000       0.47270000       0.50341500
