data_XILPUD01
_symmetry_space_group_name_H-M    'P1'
_symmetry_Int_Tables_number       1
loop_
_symmetry_equiv_pos_site_id
_symmetry_equiv_pos_as_xyz
1 x,y,z
_cell_length_a                   7.7782
_cell_length_b                   9.0032
_cell_length_c                   10.2402
_cell_angle_alpha                101.773
_cell_angle_beta                 97.543
_cell_angle_gamma                105.523
loop_
_atom_site_label
_atom_site_type_symbol
_atom_site_fract_x
_atom_site_fract_y
_atom_site_fract_z
     1  N          0.22063000       0.01842000       0.41059180
     2  N          0.77937000      -0.01842000       0.58940820
     3  C          0.32813000       0.08253000       0.33112000
     4  C          0.67187000       0.91747000       0.66888000
     5  C          0.47024000       0.22423000       0.38303000
     6  C          0.52976000       0.77577000       0.61697000
     7  H          0.53740000       0.26430000       0.31930000
     8  H          0.46260000       0.73570000       0.68070000
     9  C          0.50594000       0.29394000       0.51883000
    10  C          0.49406000       0.70606000       0.48117000
    11  H          0.61640000       0.39340000       0.55430000
    12  H          0.38360000       0.60660000       0.44570000
    13  C          0.39924000       0.22684000       0.60173000
    14  C          0.60076000       0.77316000       0.39827000
    15  H          0.42340000       0.28230000       0.70030000
    16  H          0.57660000       0.71770000       0.29970000
    17  C          0.25874000       0.09173000       0.54302000
    18  C          0.74126000       0.90827000       0.45698000
    19  H          0.17630000       0.04830000       0.59820000
    20  H          0.82370000       0.95170000       0.40180000
    21  N          0.27873000       0.00313000       0.19632000
    22  N          0.72127000      -0.00313000       0.80368000
    23  H          0.17140000       0.92760000       0.17130000
    24  H          0.82860000       0.07240000       0.82870000
    25  C          0.39374000       0.00623000       0.10042000
    26  C          0.60626000      -0.00623000       0.89958000
    27  C          0.57804000       0.03263000       0.13482000
    28  C          0.42196000       0.96737000       0.86518000
    29  H          0.65130000       0.05130000       0.22730000
    30  H          0.34870000       0.94870000       0.77270000
    31  C          0.31614000       0.97307000       0.96457000
    32  C          0.68386000       0.02693000       0.03543000
    33  H          0.19430000       0.95870000       0.94080000
    34  H          0.80570000       0.04130000       0.05920000
    35  N          0.06623000       0.26492000       0.90147180
    36  N          0.93377000       0.73508000       0.09852820
    37  C          0.09913000       0.37613000       0.83152000
    38  C          0.90087000       0.62387000       0.16848000
    39  C          0.22524000       0.52663000       0.89053000
    40  C          0.77476000       0.47337000       0.10947000
    41  H          0.24740000       0.59230000       0.83730000
    42  H          0.75260000       0.40770000       0.16270000
    43  C          0.31184000       0.56093000       0.02183000
    44  C          0.68816000       0.43907000       0.97817000
    45  H          0.40040000       0.67140000       0.06830000
    46  H          0.59960000       0.32860000       0.93170000
    47  C          0.27584000       0.44603000       0.09523000
    48  C          0.72416000       0.55397000       0.90477000
    49  H          0.34340000       0.46730000       0.19730000
    50  H          0.65660000       0.53270000       0.80270000
    51  C          0.15503000       0.30233000       0.02972000
    52  C          0.84497000       0.69767000       0.97028000
    53  H          0.12130000       0.21030000       0.07520000
    54  H          0.87870000       0.78970000       0.92480000
    55  N          0.00433000       0.32872000       0.70062000
    56  N         -0.00433000       0.67128000       0.29938000
    57  H          0.94270000       0.22130000       0.67020000
    58  H          0.05730000       0.77870000       0.32980000
    59  C          0.00693000       0.41863000       0.60272000
    60  C         -0.00693000       0.58137000       0.39728000
    61  C          0.00433000       0.57473000       0.63202000
    62  C         -0.00433000       0.42527000       0.36798000
    63  H          0.01530000       0.63330000       0.72820000
    64  H         -0.01530000       0.36670000       0.27180000
    65  C          0.00113000       0.34493000       0.46842000
    66  C         -0.00113000       0.65507000       0.53158000
    67  H         -0.00030000       0.23230000       0.44720000
    68  H          0.00030000       0.76770000       0.55280000
