data_XILPUD02
_symmetry_space_group_name_H-M    'P1'
_symmetry_Int_Tables_number       1
loop_
_symmetry_equiv_pos_site_id
_symmetry_equiv_pos_as_xyz
1 x,y,z
_cell_length_a                   7.25342
_cell_length_b                   20.82706
_cell_length_c                   9.06813
_cell_angle_alpha                90.0
_cell_angle_beta                 106.7464
_cell_angle_gamma                90.0
loop_
_atom_site_label
_atom_site_type_symbol
_atom_site_fract_x
_atom_site_fract_y
_atom_site_fract_z
     1  N          0.18091140       0.15267500       0.53715100
     2  N          0.81908860       0.65267500       0.96284900
     3  N          0.81908860       0.84732500       0.46284900
     4  N          0.18091140       0.34732500       0.03715100
     5  N          0.34929140       0.13813500       0.36249100
     6  N          0.65070860       0.63813500       0.13750900
     7  N          0.65070860       0.86186500       0.63750900
     8  N          0.34929140       0.36186500       0.86249100
     9  H          0.42660000       0.11420000       0.43800000
    10  H          0.57340000       0.61420000       0.06200000
    11  H          0.57340000       0.88580000       0.56200000
    12  H          0.42660000       0.38580000       0.93800000
    13  N          0.53458150       0.12536500       0.80074890
    14  N          0.46541850       0.62536500       0.69925110
    15  N          0.46541850       0.87463500       0.19925110
    16  N          0.53458150       0.37463500       0.30074890
    17  H          0.43140000       0.13190000       0.71890000
    18  H          0.56860000       0.63190000       0.78110000
    19  H          0.56860000       0.86810000       0.28110000
    20  H          0.43140000       0.36810000       0.21890000
    21  N          0.63876140       0.06275500       0.63154900
    22  N          0.36123860       0.56275500       0.86845100
    23  N          0.36123860       0.93724500       0.36845100
    24  N          0.63876140       0.43724500       0.13154900
    25  C          0.18087150       0.15794500       0.38962120
    26  C          0.81912850       0.65794500       0.11037880
    27  C          0.81912850       0.84205500       0.61037880
    28  C          0.18087150       0.34205500       0.88962120
    29  C          0.02222180       0.17053600       0.57328140
    30  C         -0.02222180       0.67053600       0.92671860
    31  C         -0.02222180       0.82946400       0.42671860
    32  C          0.02222180       0.32946400       0.07328140
    33  H          0.02160000       0.16630000       0.67520000
    34  H         -0.02160000       0.66630000       0.82480000
    35  H         -0.02160000       0.83370000       0.32480000
    36  H          0.02160000       0.33370000       0.17520000
    37  C          0.86047820       0.19473700       0.46964160
    38  C          0.13952180       0.69473700       0.03035840
    39  C          0.13952180       0.80526300       0.53035840
    40  C          0.86047820       0.30526300       0.96964160
    41  H          0.75380000       0.20710000       0.50000000
    42  H          0.24620000       0.70710000       0.00000000
    43  H          0.24620000       0.79290000       0.50000000
    44  H          0.75380000       0.29290000      -0.00000000
    45  C          0.86228820       0.19995700       0.31846160
    46  C          0.13771180       0.69995700       0.18153840
    47  C          0.13771180       0.80004300       0.68153840
    48  C          0.86228820       0.30004300       0.81846160
    49  H          0.75510000       0.21610000       0.24480000
    50  H          0.24490000       0.71610000       0.25520000
    51  H          0.24490000       0.78390000       0.75520000
    52  H          0.75510000       0.28390000       0.74480000
    53  C          0.02097170       0.18144600       0.27640130
    54  C         -0.02097170       0.68144600       0.22359870
    55  C         -0.02097170       0.81855400       0.72359870
    56  C          0.02097170       0.31855400       0.77640130
    57  H          0.02240000       0.18440000       0.17440000
    58  H         -0.02240000       0.68440000       0.32560000
    59  H         -0.02240000       0.81560000       0.82560000
    60  H          0.02240000       0.31560000       0.67440000
    61  C          0.39192150       0.13618500       0.22059120
    62  C          0.60807850       0.63618500       0.27940880
    63  C          0.60807850       0.86381500       0.77940880
    64  C          0.39192150       0.36381500       0.72059120
    65  C          0.34861170       0.18587500       0.11355130
    66  C          0.65138830       0.68587500       0.38644870
    67  C          0.65138830       0.81412500       0.88644870
    68  C          0.34861170       0.31412500       0.61355130
    69  H          0.28420000       0.22200000       0.13320000
    70  H          0.71580000       0.72200000       0.36680000
    71  H          0.71580000       0.77800000       0.86680000
    72  H          0.28420000       0.27800000       0.63320000
    73  C          0.40017170       0.18215600       0.97837880
    74  C          0.59982830       0.68215600       0.52162120
    75  C          0.59982830       0.81784400       0.02162120
    76  C          0.40017170       0.31784400       0.47837880
    77  H          0.36850000       0.21570000       0.90800000
    78  H          0.63150000       0.71570000       0.59200000
    79  H          0.63150000       0.78430000       0.09200000
    80  H          0.36850000       0.28430000       0.40800000
    81  C          0.49825150       0.12933500       0.94562880
    82  C          0.50174850       0.62933500       0.55437120
    83  C          0.50174850       0.87066500       0.05437120
    84  C          0.49825150       0.37066500       0.44562880
    85  C          0.54745160       0.08080500       0.05517130
    86  C          0.45254840       0.58080500       0.44482870
    87  C          0.45254840       0.91919500       0.94482870
    88  C          0.54745160       0.41919500       0.55517130
    89  H          0.61770000       0.04570000       0.03800000
    90  H          0.38230000       0.54570000       0.46200000
    91  H          0.38230000       0.95430000       0.96200000
    92  H          0.61770000       0.45430000       0.53800000
    93  C          0.49368160       0.08396500       0.18909130
    94  C          0.50631840       0.58396500       0.31090870
    95  C          0.50631840       0.91603500       0.81090870
    96  C          0.49368160       0.41603500       0.68909130
    97  H          0.52620000       0.05050000       0.25970000
    98  H          0.47380000       0.55050000       0.24030000
    99  H          0.47380000       0.94950000       0.74030000
   100  H          0.52620000       0.44950000       0.75970000
   101  C          0.67958160       0.08914500       0.77184880
   102  C          0.32041840       0.58914500       0.72815120
   103  C          0.32041840       0.91085500       0.22815120
   104  C          0.67958160       0.41085500       0.27184880
   105  C          0.77542000       0.02598600       0.60102850
   106  C          0.22458000       0.52598600       0.89897150
   107  C          0.22458000       0.97401400       0.39897150
   108  C          0.77542000       0.47401400       0.10102850
   109  H          0.74770000       0.00680000       0.50450000
   110  H          0.25230000       0.50680000      -0.00450000
   111  H          0.25230000       0.99320000       0.49550000
   112  H          0.74770000       0.49320000       0.00450000
   113  C          0.95262000       0.01483700       0.70258840
   114  C          0.04738000       0.51483700       0.79741160
   115  C          0.04738000       0.98516300       0.29741160
   116  C          0.95262000       0.48516300       0.20258840
   117  H          0.04080000       0.98780000       0.67720000
   118  H          0.95920000       0.48780000       0.82280000
   119  H          0.95920000       0.01220000       0.32280000
   120  H          0.04080000       0.51220000       0.17720000
   121  C         -0.00380820       0.04509700       0.84421850
   122  C          0.00380820       0.54509700       0.65578150
   123  C          0.00380820       0.95490300       0.15578150
   124  C         -0.00380820       0.45490300       0.34421850
   125  H          0.11730000       0.04020000       0.91450000
   126  H          0.88270000       0.54020000       0.58550000
   127  H          0.88270000       0.95980000       0.08550000
   128  H          0.11730000       0.45980000       0.41450000
   129  C          0.85928170       0.08235700       0.88008860
   130  C          0.14071830       0.58235700       0.61991140
   131  C          0.14071830       0.91764300       0.11991140
   132  C          0.85928170       0.41764300       0.38008860
   133  H          0.88580000       0.10280000       0.97510000
   134  H          0.11420000       0.60280000       0.52490000
   135  H          0.11420000       0.89720000       0.02490000
   136  H          0.88580000       0.39720000       0.47510000
