data_XIVLOD
_symmetry_space_group_name_H-M    'P1'
_symmetry_Int_Tables_number       1
loop_
_symmetry_equiv_pos_site_id
_symmetry_equiv_pos_as_xyz
1 x,y,z
_cell_length_a                   10.02502
_cell_length_b                   14.45613
_cell_length_c                   14.33622
_cell_angle_alpha                115.4221
_cell_angle_beta                 100.3371
_cell_angle_gamma                103.0191
loop_
_atom_site_label
_atom_site_type_symbol
_atom_site_fract_x
_atom_site_fract_y
_atom_site_fract_z
     1  O          0.43035600       0.28574500       0.94928500
     2  O          0.56964400       0.71425500       0.05071500
     3  O          0.45606700       0.52857500       0.82342500
     4  O          0.54393300       0.47142500       0.17657500
     5  O          0.31312600       0.30911500       0.76810500
     6  O          0.68687400       0.69088500       0.23189500
     7  C          0.44899110       0.63553700       0.85829700
     8  C          0.55100890       0.36446300       0.14170300
     9  C          0.34964100       0.45036800       0.72073700
    10  C          0.65035900       0.54963200       0.27926300
    11  C          0.31494900       0.20026600       0.85473700
    12  C          0.68505100       0.79973400       0.14526300
    13  C          0.33094100       0.20984600       0.75658700
    14  C          0.66905900       0.79015400       0.24341300
    15  C          0.35478100       0.33801700       0.69123600
    16  C          0.64521900       0.66198300       0.30876400
    17  C          0.42181110       0.28057700       0.04523800
    18  C          0.57818890       0.71942300       0.95476200
    19  H          0.28851600       0.28581200       0.61811200
    20  H          0.71148400       0.71418800       0.38188800
    21  H          0.44941500       0.65141200       0.79881200
    22  H          0.55058500       0.34858800       0.20118800
    23  H          0.41741500       0.20691200       0.03051200
    24  H          0.58258500       0.79308800       0.96948800
    25  H          0.25301400       0.45361100       0.72501100
    26  H          0.74698600       0.54638900       0.27498900
    27  H          0.21981400       0.20531100       0.86551000
    28  H          0.78018600       0.79468900       0.13449000
    29  H          0.25951600       0.14871200       0.69061200
    30  H          0.74048400       0.85128800       0.30938800
    31  H          0.36711500       0.46791200       0.66581100
    32  H          0.63288500       0.53208800       0.33418900
    33  H          0.45171500       0.33621100       0.69171100
    34  H          0.54828500       0.66378900       0.30828900
    35  H          0.33351500       0.29441100       0.05941100
    36  H          0.66648500       0.70558900       0.94058900
    37  H          0.31691600       0.12881200       0.84221200
    38  H          0.68308400       0.87118800       0.15778800
    39  H          0.42561500       0.21081100       0.74801100
    40  H          0.57438500       0.78918900       0.25198900
    41  H          0.35711500       0.63901100       0.87781100
    42  H          0.64288500       0.36098900       0.12218900
    43  O          0.95208700       0.15312500       0.67744500
    44  O          0.04791300       0.84687500       0.32255500
    45  O         -0.00500300       0.48724400       0.63527400
    46  O          0.00500300       0.51275600       0.36472600
    47  O          0.83544800       0.01337500       0.50797500
    48  O          0.16455200      -0.01337500       0.49202500
    49  O          0.74258700       0.08401400       0.20153400
    50  O          0.25741300       0.91598600       0.79846600
    51  C          0.89462800       0.33900600       0.45611500
    52  C          0.10537200       0.66099400       0.54388500
    53  O          0.79395700       0.25671500       0.23437500
    54  O          0.20604300       0.74328500       0.76562500
    55  C          0.88955800       0.19208500       0.53422500
    56  C          0.11044200       0.80791500       0.46577500
    57  C          0.94355800       0.30393500       0.60703500
    58  C          0.05644200       0.69606500       0.39296500
    59  C          0.84111700       0.22686500       0.38466500
    60  C          0.15888300       0.77313500       0.61533500
    61  C          0.94456800       0.37762500       0.56814500
    62  C          0.05543200       0.62237500       0.43185500
    63  C          0.83658800       0.15251500       0.42266500
    64  C          0.16341200       0.84748500       0.57733500
    65  C          0.89285800       0.11557600       0.57722600
    66  C          0.10714200       0.88442400       0.42277400
    67  C          0.78797800       0.18341600       0.26532500
    68  C          0.21202200       0.81658400       0.73467500
    69  H          0.80021400       0.07521100       0.37311000
    70  H          0.19978600       0.92478900       0.62689000
    71  H         -0.02048500       0.33001100       0.68691100
    72  H          0.02048500       0.66998900       0.31308900
    73  H          0.89881400       0.39191100       0.43041100
    74  H          0.10118600       0.60808900       0.56958900
    75  H          0.00411600       0.50131200       0.70311300
    76  H         -0.00411600       0.49868800       0.29688700
    77  H          0.76551900       0.22231500       0.15761500
    78  H          0.23448100       0.77768500       0.84238500
    79  H          0.83903000       0.96508100       0.54321900
    80  H          0.16097000       0.03491900       0.45678100
    81  O          0.38316700       0.86778600       0.35343400
    82  O          0.61683300       0.13221400       0.64656600
    83  O          0.55664700       0.27226500       0.52104500
    84  O          0.44335300       0.72773500       0.47895500
    85  O          0.53866700       0.30336400       0.37946500
    86  O          0.46133300       0.69663600       0.62053500
    87  O          0.33212800       0.00100500       0.00848500
    88  O          0.66787200      -0.00100500      -0.00848500
    89  O          0.29712700       0.82965500       0.97675600
    90  O          0.70287300       0.17034500       0.02324400
    91  C          0.42093800       0.08372500       0.23095500
    92  C          0.57906200       0.91627500       0.76904500
    93  C          0.36013800       0.89783500       0.19861500
    94  C          0.63986200       0.10216500       0.80138500
    95  C          0.44875800       0.04775600       0.38304500
    96  C          0.55124200       0.95224400       0.61695500
    97  C          0.37108800       0.97188500       0.15963500
    98  C          0.62891200       0.02811500       0.84036500
    99  C          0.52232800       0.23949500       0.42056600
   100  C          0.47767200       0.76050500       0.57943400
   101  C          0.46168700       0.12052500       0.34261500
   102  C          0.53831300       0.87947500       0.65738500
   103  C          0.32997800       0.92824400       0.04014600
   104  C          0.67002200       0.07175600       0.95985400
   105  C          0.39561800       0.93575500       0.31051500
   106  C          0.60438200       0.06424500       0.68948500
   107  H          0.42971300       0.13651000       0.20441000
   108  H          0.57028700       0.86349000       0.79559000
   109  H          0.47521500       0.07371200       0.45971200
   110  H          0.52478500       0.92628800       0.54028800
   111  H          0.32911400       0.82028900       0.14831000
   112  H          0.67088600       0.17971100       0.85169000
   113  H          0.33631900       0.80238500       0.30001400
   114  H          0.66368100       0.19761500       0.69998600
   115  H          0.30502000       0.96568400       0.93068400
   116  H          0.69498000       0.03431600       0.06931600
   117  H          0.60503000       0.39403000       0.44203000
   118  H          0.39497000       0.60597000       0.55797000
   119  O          0.95538700       0.02036500       0.75397500
   120  O          0.04461300       0.97963500       0.24602500
   121  O          0.68937700       0.47824600       0.66167500
   122  O          0.31062300       0.52175400       0.33832500
   123  O         -0.01619300       0.84907500       0.98830400
   124  O          0.01619300       0.15092500       0.01169600
   125  O          0.84247700       0.88131500       0.58387500
   126  O          0.15752300       0.11868500       0.41612500
   127  O          0.67674700       0.50807500       0.51940500
   128  O          0.32325300       0.49192500       0.48059500
   129  C          0.79712800       0.65824500       0.69653600
   130  C          0.20287200       0.34175500       0.30346400
   131  C          0.85332800       0.69550500       0.80780600
   132  C          0.14667200       0.30449500       0.19219400
   133  C          0.88213800       0.84132500       0.72823600
   134  C          0.11786200       0.15867500       0.27176400
   135  C          0.89383800       0.91847500       0.68484600
   136  C          0.10616200       0.08152500       0.31515400
   137  C          0.93844800       0.88045500       0.83953600
   138  C          0.06155200       0.11954500       0.16046400
   139  C          0.81250800       0.73029500       0.65572600
   140  C          0.18749200       0.26970500       0.34427400
   141  C          0.92592800       0.80687400       0.87927600
   142  C          0.07407200       0.19312600       0.12072400
   143  C          0.71642800       0.54071400       0.62000600
   144  C          0.28357200       0.45928600       0.37999400
   145  H          0.63303000       0.39498000       0.60002000
   146  H          0.36697000       0.60502000       0.39998000
   147  H          0.83911400       0.64189000       0.83591000
   148  H          0.16088600       0.35811000       0.16409000
   149  H          0.77581400       0.70628900       0.58171100
   150  H          0.22418600       0.29371100       0.41828900
   151  H         -0.01228500       0.95698900       0.89131100
   152  H          0.01228500       0.04301100       0.10868900
   153  H         -0.00888300       0.79598700       0.00301300
   154  H          0.00888300       0.20401300      -0.00301300
   155  H          0.95103000       0.07102000       0.71402000
   156  H          0.04897000       0.92898000       0.28598000
   157  O          0.17171600       0.41086500       0.89872500
   158  O          0.82828400       0.58913500       0.10127500
   159  H          0.24881700       0.45711300       0.95551300
   160  H          0.75118300       0.54288700       0.04448700
   161  H          0.19951600       0.36991300       0.84681300
   162  H          0.80048400       0.63008700       0.15318700
   163  O          0.01930700       0.68948500       0.03585500
   164  O         -0.01930700       0.31051500       0.96414500
   165  H          0.09971800       0.70118700       0.08131300
   166  H          0.90028200       0.29881300       0.91868700
   167  H          0.95581700       0.66378800       0.05821200
   168  H          0.04418300       0.33621200       0.94178800
   169  O          0.60561600       0.44476500       0.92718500
   170  O          0.39438400       0.55523500       0.07281500
   171  H          0.55771700       0.47261300       0.89791300
   172  H          0.44228300       0.52738700       0.10208700
   173  H          0.54461600       0.39771200       0.93531200
   174  H          0.45538400       0.60228800       0.06468800
   175  O          0.00904700       0.51502500       0.83932500
   176  O         -0.00904700       0.48497500       0.16067500
   177  H          0.06711600       0.48571200       0.86481200
   178  H          0.93288400       0.51428800       0.13518800
   179  H          0.01821700       0.57281300       0.89941300
   180  H         -0.01821700       0.42718700       0.10058700
   181  O          0.23167700       0.66004500       0.18573500
   182  O          0.76832300       0.33995500       0.81426500
   183  H          0.16901700       0.61198700       0.19121200
   184  H          0.83098300       0.38801300       0.80878800
   185  H          0.28821700       0.62968700       0.15381300
   186  H          0.71178300       0.37031300       0.84618700
