data_XIVLOD02
_symmetry_space_group_name_H-M    'P1'
_symmetry_Int_Tables_number       1
loop_
_symmetry_equiv_pos_site_id
_symmetry_equiv_pos_as_xyz
1 x,y,z
_cell_length_a                   10.29892
_cell_length_b                   14.35863
_cell_length_c                   14.56793
_cell_angle_alpha                115.5218
_cell_angle_beta                 103.4909
_cell_angle_gamma                100.1161
loop_
_atom_site_label
_atom_site_type_symbol
_atom_site_fract_x
_atom_site_fract_y
_atom_site_fract_z
     1  C          0.41794000       0.03953000       0.77833000
     2  C          0.58206000       0.96047000       0.22167000
     3  H          0.33370000       0.05490000       0.79100000
     4  H          0.66630000       0.94510000       0.20900000
     5  H          0.41060000       0.02650000       0.70590000
     6  H          0.58940000       0.97350000       0.29410000
     7  C          0.31363000       0.85083000       0.70282000
     8  C          0.68637000       0.14917000       0.29718000
     9  H          0.31360000       0.83810000       0.63180000
    10  H          0.68640000       0.16190000       0.36820000
    11  H          0.22470000       0.86100000       0.70890000
    12  H          0.77530000       0.13900000       0.29110000
    13  C          0.33103000       0.75622000       0.71602000
    14  C          0.66897000       0.24378000       0.28398000
    15  H          0.26100000       0.68990000       0.65560000
    16  H          0.73900000       0.31010000       0.34440000
    17  H          0.42340000       0.75010000       0.71620000
    18  H          0.57660000       0.24990000       0.28380000
    19  C          0.35533000       0.69452000       0.84533000
    20  C          0.64467000       0.30548000       0.15467000
    21  H          0.44910000       0.69450000       0.84400000
    22  H          0.55090000       0.30550000       0.15600000
    23  H          0.29070000       0.62180000       0.79430000
    24  H          0.70930000       0.37820000       0.20570000
    25  C          0.35303000       0.72632000       0.95713000
    26  C          0.64697000       0.27368000       0.04287000
    27  H          0.26120000       0.73210000       0.95940000
    28  H          0.73880000       0.26790000       0.04060000
    29  H          0.36920000       0.67060000       0.97500000
    30  H          0.63080000       0.32940000       0.02500000
    31  C          0.45644000       0.86513000       0.14063000
    32  C          0.54356000       0.13487000       0.85937000
    33  H          0.45370000       0.80670000       0.15780000
    34  H          0.54630000       0.19330000       0.84220000
    35  H          0.37180000       0.88510000       0.14430000
    36  H          0.62820000       0.11490000       0.85570000
    37  O          0.42698180       0.94519150       0.78523130
    38  O          0.57301820       0.05480850       0.21476870
    39  O          0.31536170       0.76968120       0.81577140
    40  O          0.68463830       0.23031880       0.18422860
    41  O          0.45903180       0.82823140       0.03496160
    42  O          0.54096820       0.17176860       0.96503840
    43  C          0.08252000       0.12483150       0.69289160
    44  C          0.91748000       0.87516850       0.30710840
    45  C          0.15222000       0.19584150       0.80342150
    46  C          0.84778000       0.80415850       0.19657850
    47  H          0.16200000       0.16930000       0.85180000
    48  H          0.83800000       0.83070000       0.14820000
    49  C          0.20692000       0.30615150       0.84125140
    50  C          0.79308000       0.69384850       0.15874860
    51  C          0.19222000       0.34629150       0.76942150
    52  C          0.80778000       0.65370850       0.23057850
    53  H          0.22700000       0.42050000       0.79500000
    54  H          0.77300000       0.57950000       0.20500000
    55  C          0.12492000       0.27455150       0.65874140
    56  C          0.87508000       0.72544850       0.34125860
    57  C          0.07052000       0.16409150       0.62015150
    58  C          0.92948000       0.83590850       0.37984850
    59  H          0.02620000       0.11650000       0.54610000
    60  H          0.97380000       0.88350000       0.45390000
    61  C          0.11242000       0.31725150       0.58176150
    62  C          0.88758000       0.68274850       0.41823850
    63  C          0.28432000       0.38215160       0.95902160
    64  C          0.71568000       0.61784840       0.04097840
    65  O          0.02632000       0.01587110       0.65036120
    66  O          0.97368000       0.98412890       0.34963880
    67  H          0.02640000       0.00210000       0.69950000
    68  H          0.97360000      -0.00210000       0.30050000
    69  O          0.30974180       0.34277110       0.02178110
    70  O          0.69025820       0.65722890       0.97821890
    71  H          0.35270000       0.39230000       0.08420000
    72  H          0.64730000       0.60770000       0.91580000
    73  O          0.32201190       0.48258110      -0.00940880
    74  O          0.67798810       0.51741890       0.00940880
    75  O          0.16296170       0.41784110       0.61927110
    76  O          0.83703830       0.58215890       0.38072890
    77  H          0.14980000       0.43150000       0.56930000
    78  H          0.85020000       0.56850000       0.43070000
    79  O          0.05249180       0.24983120       0.48100110
    80  O          0.94750820       0.75016880       0.51899890
    81  C          0.05562000       0.39603140       0.19764150
    82  C          0.94438000       0.60396860       0.80235850
    83  H          0.02140000       0.32170000       0.17180000
    84  H          0.97860000       0.67830000       0.82820000
    85  C          0.05332000       0.43469140       0.12496150
    86  C          0.94668000       0.56530860       0.87503850
    87  C          0.10182000       0.54531150       0.16345160
    88  C          0.89818000       0.45468850       0.83654840
    89  H          0.09870000       0.57180000       0.11520000
    90  H          0.90130000       0.42820000       0.88480000
    91  C          0.15510190       0.61688140       0.27484150
    92  C          0.84489810       0.38311860       0.72515850
    93  C          0.16012000       0.57863140       0.34818150
    94  C          0.83988000       0.42136860       0.65181850
    95  H          0.19730000       0.62670000       0.42250000
    96  H          0.80270000       0.37330000       0.57750000
    97  C          0.10872000       0.46770140       0.30851150
    98  C          0.89128000       0.53229860       0.69148850
    99  C          0.10842000       0.42512150       0.38493150
   100  C          0.89158000       0.57487850       0.61506850
   101  C          0.20742000       0.73567150       0.31792160
   102  C          0.79258000       0.26432850       0.68207840
   103  O          0.00280170       0.36782110       0.01516110
   104  O         -0.00280170       0.63217890       0.98483890
   105  H         -0.00180000       0.30540000       0.00140000
   106  H          0.00180000       0.69460000      -0.00140000
   107  O          0.05163170       0.32501110       0.34682110
   108  O          0.94836830       0.67498890       0.65317890
   109  H          0.05820000       0.31160000       0.39670000
   110  H          0.94180000       0.68840000       0.60330000
   111  O          0.16402000       0.49262110       0.48586120
   112  O          0.83598000       0.50737890       0.51413880
   113  O          0.25212170       0.79844110       0.41792120
   114  O          0.74787830       0.20155890       0.58207880
   115  H          0.27760000       0.86150000       0.43050000
   116  H          0.72240000       0.13850000       0.56950000
   117  O          0.20216190       0.76777110       0.24754120
   118  O          0.79783810       0.23222890       0.75245880
   119  C          0.37332000       0.16022140       0.47208150
   120  C          0.62668000       0.83977860       0.52791850
   121  C          0.36232000       0.19893140       0.39893150
   122  C          0.63768000       0.80106860       0.60106850
   123  H          0.32970000       0.15040000       0.32480000
   124  H          0.67030000       0.84960000       0.67520000
   125  C          0.40032000       0.31022140       0.43687150
   126  C          0.59968000       0.68977860       0.56312850
   127  C          0.45382000       0.38193150       0.54759150
   128  C          0.54618000       0.61806850       0.45240850
   129  H          0.48110000       0.45650000       0.57340000
   130  H          0.51890000       0.54350000       0.42660000
   131  C          0.46670190       0.34249140       0.62022150
   132  C          0.53329810       0.65750860       0.37977850
   133  C          0.42472000       0.23141140       0.58304150
   134  C          0.57528000       0.76858860       0.41695850
   135  H          0.43090000       0.20520000       0.63170000
   136  H          0.56910000       0.79480000       0.36830000
   137  C          0.32832000       0.04096150       0.42888160
   138  C          0.67168000       0.95903850       0.57111840
   139  C          0.52702000       0.41946150       0.73910160
   140  C          0.47298000       0.58053850       0.26089840
   141  O          0.28991190       0.97848110       0.32952120
   142  O          0.71008810       0.02151890       0.67047880
   143  H          0.26800000       0.91530000       0.31690000
   144  H          0.73200000       0.08470000       0.68310000
   145  O          0.33341190       0.00854110       0.49908120
   146  O          0.66658810      -0.00854110       0.50091880
   147  O          0.54297170       0.38102110       0.80294110
   148  O          0.45702830       0.61897890       0.19705890
   149  H          0.57670000       0.43100000       0.86580000
   150  H          0.42330000       0.56900000       0.13420000
   151  O          0.56176180       0.52015110       0.77044120
   152  O          0.43823820       0.47984890       0.22955880
   153  O          0.38862170       0.35306110       0.36889110
   154  O          0.61137830       0.64693890       0.63110890
   155  H          0.34100000       0.30490000       0.30680000
   156  H          0.65900000       0.69510000       0.69320000
   157  O          0.16804170       0.89926130       0.91178140
   158  O          0.83195830       0.10073870       0.08821860
   159  H          0.24720000       0.95801700       0.96220000
   160  H          0.75280000       0.04198300       0.03780000
   161  H          0.19830000       0.84571700       0.87320000
   162  H          0.80170000       0.15428300       0.12680000
   163  O          0.60801160       0.92715130       0.94844140
   164  O          0.39198840       0.07284870       0.05155860
   165  H          0.54730000       0.93330000       0.89820000
   166  H          0.45270000       0.06670000       0.10180000
   167  H          0.56830000       0.89930000       0.98120000
   168  H          0.43170000       0.10070000       0.01880000
   169  O         -0.01682000       0.96437130       0.80519140
   170  O          0.01682000       0.03562870       0.19480860
   171  H          0.90080000       0.91830000       0.78730000
   172  H          0.09920000       0.08170000       0.21270000
   173  H          0.05220000       0.94820000       0.84220000
   174  H          0.94780000       0.05180000       0.15780000
   175  O          0.01322000       0.83923120       0.01794140
   176  O         -0.01322000       0.16076880       0.98205860
   177  H          0.07030000       0.86320000       0.98820000
   178  H          0.92970000       0.13680000       0.01180000
   179  H          0.02530000       0.89720000       0.08181800
   180  H          0.97470000       0.10280000       0.91818200
   181  O          0.23612000       0.18932150       0.15980130
   182  O          0.76388000       0.81067850       0.84019870
   183  H          0.17430000       0.20030000       0.11420000
   184  H          0.82570000       0.79970000       0.88580000
   185  H          0.29130000       0.15620000       0.12820000
   186  H          0.70870000       0.84380000       0.87180000
