data_XIVLOD01
_symmetry_space_group_name_H-M    'P1'
_symmetry_Int_Tables_number       1
loop_
_symmetry_equiv_pos_site_id
_symmetry_equiv_pos_as_xyz
1 x,y,z
_cell_length_a                   10.23713
_cell_length_b                   14.54225
_cell_length_c                   14.34224
_cell_angle_alpha                115.4981
_cell_angle_beta                 99.7251
_cell_angle_gamma                103.8011
loop_
_atom_site_label
_atom_site_type_symbol
_atom_site_fract_x
_atom_site_fract_y
_atom_site_fract_z
     1  O          0.42725140       0.28514100       0.94544120
     2  O          0.57274860       0.71485900       0.05455880
     3  O          0.45888140       0.53445120       0.82771110
     4  O          0.54111860       0.46554880       0.17228890
     5  O          0.31517130       0.31501110       0.76954100
     6  O          0.68482870       0.68498890       0.23045900
     7  C          0.45540300       0.64020200       0.86450200
     8  C          0.54459700       0.35979800       0.13549800
     9  C          0.35290300       0.45620300       0.72568180
    10  C          0.64709700       0.54379700       0.27431820
    11  C          0.31340300       0.20273160       0.85120200
    12  C          0.68659700       0.79726840       0.14879800
    13  C          0.33060300       0.21542170       0.75650200
    14  C          0.66939700       0.78457830       0.24349800
    15  C          0.35520300       0.34470200       0.69417160
    16  C          0.64479700       0.65529800       0.30582840
    17  C          0.41810400       0.27860200       0.04020200
    18  C          0.58189600       0.72139800       0.95979800
    19  H          0.28730000       0.29720000       0.62020000
    20  H          0.71270000       0.70280000       0.37980000
    21  H          0.46040000       0.65530000       0.81130000
    22  H          0.53960000       0.34470000       0.18870000
    23  H          0.39940000       0.20130000       0.01230000
    24  H          0.60060000       0.79870000       0.98770000
    25  H          0.25930000       0.46320000       0.73520000
    26  H          0.74070000       0.53680000       0.26480000
    27  H          0.22030000       0.21220000       0.86520000
    28  H          0.77970000       0.78780000       0.13480000
    29  H          0.26430000       0.15930000       0.68930000
    30  H          0.73570000       0.84070000       0.31070000
    31  H          0.37330000       0.48320000       0.67820000
    32  H          0.62670000       0.51680000       0.32180000
    33  H          0.45830000       0.34620000       0.69520000
    34  H          0.54170000       0.65380000       0.30480000
    35  H          0.33230000       0.29220000       0.05420000
    36  H          0.66770000       0.70780000       0.94580000
    37  H          0.31430000       0.12620000       0.83120000
    38  H          0.68570000       0.87380000       0.16880000
    39  H          0.43430000       0.22120000       0.74820000
    40  H          0.56570000       0.77880000       0.25180000
    41  H          0.35830000       0.64120000       0.88720000
    42  H          0.64170000       0.35880000       0.11280000
    43  O          0.94850140       0.15303900       0.67534900
    44  O          0.05149860       0.84696100       0.32465100
    45  O         -0.00304860       0.48505800       0.63249900
    46  O          0.00304860       0.51494200       0.36750100
    47  O          0.83612160       0.01395900       0.50758900
    48  O          0.16387840      -0.01395900       0.49241100
    49  O          0.74750140       0.08207900       0.20121800
    50  O          0.25249860       0.91792100       0.79878200
    51  C          0.89789160       0.33672120       0.45466120
    52  C          0.10210840       0.66327880       0.54533880
    53  O          0.79762160       0.25251100       0.23230900
    54  O          0.20237840       0.74748900       0.76769100
    55  C          0.89114150       0.19152110       0.53255110
    56  C          0.10885850       0.80847890       0.46744890
    57  C          0.94473160       0.30278120       0.60459110
    58  C          0.05526840       0.69721880       0.39540890
    59  C          0.84477150       0.22528120       0.38337110
    60  C          0.15522850       0.77471880       0.61662890
    61  C          0.94650160       0.37544110       0.56562110
    62  C          0.05349840       0.62455890       0.43437890
    63  C          0.83995160       0.15173120       0.42139110
    64  C          0.16004840       0.84826880       0.57860890
    65  C          0.89208170       0.11510120       0.57542120
    66  C          0.10791830       0.88489880       0.42457880
    67  C          0.79219160       0.18231120       0.26435110
    68  C          0.20780840       0.81768880       0.73564890
    69  H          0.80320000       0.07720000       0.37320000
    70  H          0.19680000       0.92280000       0.62680000
    71  H         -0.02080000       0.32810000       0.68020000
    72  H          0.02080000       0.67190000       0.31980000
    73  H          0.90420000       0.38720000       0.42910000
    74  H          0.09580000       0.61280000       0.57090000
    75  H          0.00420000       0.49920000       0.69720000
    76  H         -0.00420000       0.50080000       0.30280000
    77  H          0.76930000       0.21820000       0.14730000
    78  H          0.23070000       0.78180000       0.85270000
    79  H          0.83640000       0.94870000       0.54630000
    80  H          0.16360000       0.05130000       0.45370000
    81  O          0.38818140       0.86886900       0.35311900
    82  O          0.61181860       0.13113100       0.64688100
    83  O          0.56185150       0.27061900       0.52040900
    84  O          0.43814850       0.72938100       0.47959100
    85  O          0.54315140       0.30307900       0.38121900
    86  O          0.45684860       0.69692100       0.61878100
    87  O          0.33317160      -0.00098100       0.00833900
    88  O          0.66682840       0.00098100      -0.00833900
    89  O          0.29005160       0.82940100       0.97811100
    90  O          0.70994840       0.17059900       0.02188900
    91  C          0.42455150       0.08305120       0.23124110
    92  C          0.57544850       0.91694880       0.76875890
    93  C          0.36233160       0.89872880       0.19888110
    94  C          0.63766840       0.10127120       0.80111890
    95  C          0.45355160       0.04778120       0.38211120
    96  C          0.54644840       0.95221880       0.61788880
    97  C          0.37317160       0.97205880       0.16014110
    98  C          0.62682840       0.02794120       0.83985890
    99  C          0.52677160       0.23916120       0.41983110
   100  C          0.47322840       0.76083880       0.58016890
   101  C          0.46652150       0.12018110       0.34234110
   102  C          0.53347850       0.87981890       0.65765890
   103  C          0.32858170       0.92898880       0.04081110
   104  C          0.67141830       0.07101120       0.95918890
   105  C          0.39989160       0.93675880       0.31023110
   106  C          0.60010840       0.06324120       0.68976890
   107  H          0.43320000       0.13220000       0.20710000
   108  H          0.56680000       0.86780000       0.79290000
   109  H          0.48220000       0.07420000       0.45820000
   110  H          0.51780000       0.92580000       0.54180000
   111  H          0.32720000       0.82190000       0.14810000
   112  H          0.67280000       0.17810000       0.85190000
   113  H          0.34030000       0.80180000       0.30020000
   114  H          0.65970000       0.19820000       0.69980000
   115  H          0.30330000       0.96170000       0.91570000
   116  H          0.69670000       0.03830000       0.08430000
   117  H          0.61140000       0.40330000       0.45130000
   118  H          0.38860000       0.59670000       0.54870000
   119  O          0.94794150       0.01916900       0.75052100
   120  O          0.05205850       0.98083100       0.24947900
   121  O          0.68997140       0.47815100       0.65726900
   122  O          0.31002860       0.52184900       0.34273100
   123  O          0.97425170       0.84953900       0.98427900
   124  O          0.02574830       0.15046100       0.01572100
   125  O          0.83702140       0.88099100       0.58236900
   126  O          0.16297860       0.11900900       0.41763100
   127  O          0.67756160       0.50909100       0.51740900
   128  O          0.32243840       0.49090900       0.48259100
   129  C          0.79355160       0.65887890       0.69400120
   130  C          0.20644840       0.34112110       0.30599880
   131  C          0.84825170       0.69640880       0.80459120
   132  C          0.15174830       0.30359120       0.19540880
   133  C          0.87570150       0.84134890       0.72573110
   134  C          0.12429850       0.15865110       0.27426890
   135  C          0.88766160       0.91821880       0.68283120
   136  C          0.11233840       0.08178120       0.31716880
   137  C          0.92992170       0.87972880       0.83600120
   138  C          0.07007830       0.12027120       0.16399880
   139  C          0.80798160       0.73043880       0.65354120
   140  C          0.19201840       0.26956120       0.34645880
   141  C          0.91833180       0.80726880       0.87557120
   142  C          0.08166820       0.19273120       0.12442880
   143  C          0.71580170       0.54087880       0.61804120
   144  C          0.28419830       0.45912120       0.38195880
   145  H          0.63040000       0.37970000       0.58930000
   146  H          0.36960000       0.62030000       0.41070000
   147  H          0.83620000       0.64380000       0.82910000
   148  H          0.16380000       0.35620000       0.17090000
   149  H          0.77420000       0.70590000       0.57920000
   150  H          0.22580000       0.29410000       0.42080000
   151  H          0.97320000       0.95580000       0.88320000
   152  H          0.02680000       0.04420000       0.11680000
   153  H         -0.01880000       0.80280000       0.00020000
   154  H          0.01880000       0.19720000      -0.00020000
   155  H          0.95040000       0.07430000       0.71530000
   156  H          0.04960000       0.92570000       0.28470000
   157  O          0.16838140       0.41177110       0.89937110
   158  O          0.83161860       0.58822890       0.10062890
   159  H          0.25130000       0.46220000       0.96220000
   160  H          0.74870000       0.53780000       0.03780000
   161  H          0.20330000       0.37420000       0.84920000
   162  H          0.79670000       0.62580000       0.15080000
   163  O          0.01671180       0.69400890       0.03534110
   164  O         -0.01671180       0.30599110       0.96465890
   165  H          0.09330000       0.71970000       0.08130000
   166  H          0.90670000       0.28030000       0.91870000
   167  H          0.95230000       0.66280000       0.05520000
   168  H          0.04770000       0.33720000       0.94480000
   169  O          0.60785140       0.44827120       0.92732110
   170  O          0.39214860       0.55172880       0.07267890
   171  H          0.56830000       0.47530000       0.89720000
   172  H          0.43170000       0.52470000       0.10280000
   173  H          0.54630000       0.39720000       0.93020000
   174  H          0.45370000       0.60280000       0.06980000
   175  O          0.01252160       0.51767120       0.83938100
   176  O         -0.01252160       0.48232880       0.16061900
   177  H          0.07230000       0.49220000       0.86320000
   178  H          0.92770000       0.50780000       0.13680000
   179  H          0.02330000       0.58330000       0.90320000
   180  H          0.97670000       0.41670000       0.09680000
   181  O          0.23525170       0.65968900       0.18879120
   182  O          0.76474830       0.34031100       0.81120880
   183  H          0.17330000       0.61570000       0.20130000
   184  H          0.82670000       0.38430000       0.79870000
   185  H          0.29230000       0.62680000       0.15820000
   186  H          0.70770000       0.37320000       0.84180000
