data_XOHYIE
_symmetry_space_group_name_H-M    'P1'
_symmetry_Int_Tables_number       1
loop_
_symmetry_equiv_pos_site_id
_symmetry_equiv_pos_as_xyz
1 x,y,z
_cell_length_a                   8.9413
_cell_length_b                   10.0743
_cell_length_c                   13.8224
_cell_angle_alpha                92.59418
_cell_angle_beta                 95.212
_cell_angle_gamma                105.98517
loop_
_atom_site_label
_atom_site_type_symbol
_atom_site_fract_x
_atom_site_fract_y
_atom_site_fract_z
     1  S          0.27380150       0.11045120       0.07856800
     2  S          0.72619850       0.88954880       0.92143200
     3  S          0.82987850       0.65067120       0.10674900
     4  S          0.17012150       0.34932880       0.89325100
     5  C          0.70255000       0.68644000       0.31373000
     6  C          0.29745000       0.31356000       0.68627000
     7  H          0.65990000       0.66300000       0.24930000
     8  H          0.34010000       0.33700000       0.75070000
     9  C          0.91374000       0.80455000       0.43023000
    10  C          0.08626000       0.19545000       0.56977000
    11  H          0.01560000       0.86090000       0.44540000
    12  H         -0.01560000       0.13910000       0.55460000
    13  C          0.82324000       0.75536000       0.50403000
    14  C          0.17676000       0.24464000       0.49597000
    15  H          0.86500000       0.77980000       0.56860000
    16  H          0.13500000       0.22020000       0.43140000
    17  C          0.61324000       0.63655000       0.38853000
    18  C          0.38676000       0.36345000       0.61147000
    19  H          0.51190000       0.57900000       0.37390000
    20  H          0.48810000       0.42100000       0.62610000
    21  C          0.85315000       0.76994000       0.33423000
    22  C          0.14685000       0.23006000       0.66577000
    23  C          0.67504000       0.67235000       0.48393000
    24  C          0.32496000       0.32765000       0.51607000
    25  H          0.61570000       0.63980000       0.53420000
    26  H          0.38430000       0.36020000       0.46580000
    27  N          0.05654000       0.88313000       0.12122000
    28  N          0.94346000       0.11687000       0.87878000
    29  H          0.05360000       0.86220000       0.05990000
    30  H          0.94640000       0.13780000       0.94010000
    31  N          0.20845000       0.04044000       0.24923000
    32  N          0.79155000       0.95956000       0.75077000
    33  N          0.95086000       0.83074000       0.26332000
    34  N          0.04914000       0.16926000       0.73668000
    35  H          0.02460000       0.90360000       0.28470000
    36  H          0.97540000       0.09640000       0.71530000
    37  C          0.16975000       0.00144000       0.15753000
    38  C          0.83025000      -0.00144000       0.84247000
    39  C          0.33036000       0.16225000       0.25944000
    40  C          0.66964000       0.83775000       0.74056000
    41  H          0.37460000       0.20450000       0.32040000
    42  H          0.62540000       0.79550000       0.67960000
    43  C          0.38125000       0.21575000       0.17793000
    44  C          0.61875000       0.78425000       0.82207000
    45  C          0.51406000       0.34125000       0.16564000
    46  C          0.48594000       0.65875000       0.83436000
    47  H          0.55310000       0.39090000       0.22780000
    48  H          0.44690000       0.60910000       0.77220000
    49  H          0.47730000       0.40030000       0.12240000
    50  H          0.52270000       0.59970000       0.87760000
    51  H          0.59640000       0.31260000       0.13860000
    52  H          0.40360000       0.68740000       0.86140000
    53  C          0.94735000       0.79354000       0.16883000
    54  C          0.05265000       0.20646000       0.83117000
    55  S          0.15423150       0.84896120       0.89465800
    56  S          0.84576850       0.15103880       0.10534200
    57  S          0.70960150       0.39366120       0.92749900
    58  S          0.29039850       0.60633880       0.07250100
    59  C          0.26566000       0.68926000       0.52724000
    60  C          0.73434000       0.31074000       0.47276000
    61  H          0.28300000       0.62960000       0.47890000
    62  H          0.71700000       0.37040000       0.52110000
    63  C          0.20775000       0.86405000       0.66863000
    64  C          0.79225000       0.13595000       0.33137000
    65  H          0.18750000       0.92380000       0.71570000
    66  H          0.81250000       0.07620000       0.28430000
    67  C          0.14735000       0.72294000       0.67203000
    68  C          0.85265000       0.27706000       0.32797000
    69  C          0.29856000       0.91725000       0.59533000
    70  C          0.70144000       0.08275000       0.40467000
    71  H          0.33900000       0.01240000       0.59350000
    72  H          0.66100000      -0.01240000       0.40650000
    73  C          0.17666000       0.63605000       0.60033000
    74  C          0.82334000       0.36395000       0.39967000
    75  H          0.13570000       0.54070000       0.60130000
    76  H          0.86430000       0.45930000       0.39870000
    77  C          0.32856000       0.82906000       0.52544000
    78  C          0.67144000       0.17094000       0.47456000
    79  H          0.39130000       0.86440000       0.47720000
    80  H          0.60870000       0.13560000       0.52280000
    81  N          0.93184000       0.61383000       0.88112000
    82  N          0.06816000       0.38617000       0.11888000
    83  H          0.92560000       0.64150000       0.94000000
    84  H          0.07440000       0.35850000       0.06000000
    85  N          0.04964000       0.65994000       0.74172000
    86  N          0.95036000       0.34006000       0.25828000
    87  H         -0.01530000       0.58120000       0.72180000
    88  H          0.01530000       0.41880000       0.27820000
    89  C          0.04165000       0.70284000       0.83363000
    90  C          0.95835000       0.29716000       0.16637000
    91  C          0.70496000       0.29935000       0.75633000
    92  C          0.29504000       0.70065000       0.24367000
    93  H          0.68070000       0.24090000       0.69960000
    94  H          0.31930000       0.75910000       0.30040000
    95  C          0.63375000       0.26425000       0.83553000
    96  C          0.36625000       0.73575000       0.16447000
    97  C          0.82965000       0.48624000       0.84863000
    98  C          0.17035000       0.51376000       0.15137000
    99  C          0.50576000       0.13655000       0.85134000
   100  C          0.49424000       0.86345000       0.14866000
   101  H          0.40980000       0.16040000       0.85590000
   102  H          0.59020000       0.83960000       0.14410000
   103  H          0.53380000       0.09850000       0.91040000
   104  H          0.46620000       0.90150000       0.08960000
   105  H          0.49210000       0.06910000       0.79740000
   106  H          0.50790000       0.93090000       0.20260000
   107  N          0.81724000       0.42714000       0.76193000
   108  N          0.18276000       0.57286000       0.23807000
