data_XOHYIE01
_symmetry_space_group_name_H-M    'P1'
_symmetry_Int_Tables_number       1
loop_
_symmetry_equiv_pos_site_id
_symmetry_equiv_pos_as_xyz
1 x,y,z
_cell_length_a                   16.86541
_cell_length_b                   6.12693
_cell_length_c                   24.561114
_cell_angle_alpha                90.0
_cell_angle_beta                 108.5967
_cell_angle_gamma                90.0
loop_
_atom_site_label
_atom_site_type_symbol
_atom_site_fract_x
_atom_site_fract_y
_atom_site_fract_z
     1  S          0.22361500       0.70606860       0.08204300
     2  S          0.77638500       0.70606860       0.41795700
     3  S          0.72361500       0.20606860       0.08204300
     4  S          0.27638500       0.20606860       0.41795700
     5  S          0.77638500       0.29393140       0.91795700
     6  S          0.22361500       0.29393140       0.58204300
     7  S          0.27638500       0.79393140       0.91795700
     8  S          0.72361500       0.79393140       0.58204300
     9  S          0.14005500       0.23352140       0.90227700
    10  S          0.85994500       0.23352140       0.59772300
    11  S          0.64005500       0.73352140       0.90227700
    12  S          0.35994500       0.73352140       0.59772300
    13  S          0.85994500       0.76647860       0.09772300
    14  S          0.14005500       0.76647860       0.40227700
    15  S          0.35994500       0.26647860       0.09772300
    16  S          0.64005500       0.26647860       0.40227700
    17  N          0.16607140      -0.00824000      -0.00148900
    18  N          0.83392860      -0.00824000       0.50148900
    19  N          0.66607140       0.49176000      -0.00148900
    20  N          0.33392860       0.49176000       0.50148900
    21  N          0.83392860       0.00824000       0.00148900
    22  N          0.16607140       0.00824000       0.49851100
    23  N          0.33392860       0.50824000       0.00148900
    24  N          0.66607140       0.50824000       0.49851100
    25  H          0.18830000       0.90290000       0.98050000
    26  H          0.81170000       0.90290000       0.51950000
    27  H          0.68830000       0.40290000       0.98050000
    28  H          0.31170000       0.40290000       0.51950000
    29  H          0.81170000       0.09710000       0.01950000
    30  H          0.18830000       0.09710000       0.48050000
    31  H          0.31170000       0.59710000       0.01950000
    32  H          0.68830000       0.59710000       0.48050000
    33  C          0.13870160       0.05465000       0.13991100
    34  C          0.86129840       0.05465000       0.36008900
    35  C          0.63870160       0.55465000       0.13991100
    36  C          0.36129840       0.55465000       0.36008900
    37  C          0.86129840       0.94535000       0.86008900
    38  C          0.13870160       0.94535000       0.63991100
    39  C          0.36129840       0.44535000       0.86008900
    40  C          0.63870160       0.44535000       0.63991100
    41  N          0.13771140       0.07264000       0.08147800
    42  N          0.86228860       0.07264000       0.41852200
    43  N          0.63771140       0.57264000       0.08147800
    44  N          0.36228860       0.57264000       0.41852200
    45  N          0.86228860       0.92736000       0.91852200
    46  N          0.13771140       0.92736000       0.58147800
    47  N          0.36228860       0.42736000       0.91852200
    48  N          0.63771140       0.42736000       0.58147800
    49  H          0.11210000       0.18350000       0.06240000
    50  H          0.88790000       0.18350000       0.43760000
    51  H          0.61210000       0.68350000       0.06240000
    52  H          0.38790000       0.68350000       0.43760000
    53  H          0.88790000       0.81650000       0.93760000
    54  H          0.11210000       0.81650000       0.56240000
    55  H          0.38790000       0.31650000       0.93760000
    56  H          0.61210000       0.31650000       0.56240000
    57  N          0.08380150       0.31354000       0.98533100
    58  N          0.91619850       0.31354000       0.51466900
    59  N          0.58380150       0.81354000       0.98533100
    60  N          0.41619850       0.81354000       0.51466900
    61  N          0.91619850       0.68646000       0.01466900
    62  N          0.08380150       0.68646000       0.48533100
    63  N          0.41619850       0.18646000       0.01466900
    64  N          0.58380150       0.18646000       0.48533100
    65  C          0.17254160       0.93445000       0.05390110
    66  C          0.82745840       0.93445000       0.44609890
    67  C          0.67254160       0.43445000       0.05390110
    68  C          0.32745840       0.43445000       0.44609890
    69  C          0.82745840       0.06555000       0.94609890
    70  C          0.17254160       0.06555000       0.55390110
    71  C          0.32745840       0.56555000       0.94609890
    72  C          0.67254160       0.56555000       0.55390110
    73  C          0.17108180       0.22385000       0.17673110
    74  C          0.82891820       0.22385000       0.32326890
    75  C          0.67108180       0.72385000       0.17673110
    76  C          0.32891820       0.72385000       0.32326890
    77  C          0.82891820       0.77615000       0.82326890
    78  C          0.17108180       0.77615000       0.67673110
    79  C          0.32891820       0.27615000       0.82326890
    80  C          0.67108180       0.27615000       0.67673110
    81  H          0.19360000       0.34480000       0.16410000
    82  H          0.80640000       0.34480000       0.33590000
    83  H          0.69360000       0.84480000       0.16410000
    84  H          0.30640000       0.84480000       0.33590000
    85  H          0.80640000       0.65520000       0.83590000
    86  H          0.19360000       0.65520000       0.66410000
    87  H          0.30640000       0.15520000       0.83590000
    88  H          0.69360000       0.15520000       0.66410000
    89  C          0.10500190       0.87635000       0.15815130
    90  C          0.89499810       0.87635000       0.34184870
    91  C          0.60500190       0.37635000       0.15815130
    92  C          0.39499810       0.37635000       0.34184870
    93  C          0.89499810       0.12365000       0.84184870
    94  C          0.10500190       0.12365000       0.65815130
    95  C          0.39499810       0.62365000       0.84184870
    96  C          0.60500190       0.62365000       0.65815130
    97  H          0.08280000       0.76190000       0.13310000
    98  H          0.91720000       0.76190000       0.36690000
    99  H          0.58280000       0.26190000       0.13310000
   100  H          0.41720000       0.26190000       0.36690000
   101  H          0.91720000       0.23810000       0.86690000
   102  H          0.08280000       0.23810000       0.63310000
   103  H          0.41720000       0.73810000       0.86690000
   104  H          0.58280000       0.73810000       0.63310000
   105  C          0.07901170       0.46445000       0.89744880
   106  C          0.92098830       0.46445000       0.60255120
   107  C          0.57901170       0.96445000       0.89744880
   108  C          0.42098830       0.96445000       0.60255120
   109  C          0.92098830       0.53555000       0.10255120
   110  C          0.07901170       0.53555000       0.39744880
   111  C          0.42098830       0.03555000       0.10255120
   112  C          0.57901170       0.03555000       0.39744880
   113  C          0.13712000       0.03636000       0.25129130
   114  C          0.86288000       0.03636000       0.24870870
   115  C          0.63712000       0.53636000       0.25129130
   116  C          0.36288000       0.53636000       0.24870870
   117  C          0.86288000       0.96364000       0.74870870
   118  C          0.13712000       0.96364000       0.75129130
   119  C          0.36288000       0.46364000       0.74870870
   120  C          0.63712000       0.46364000       0.75129130
   121  H          0.13670000       0.02930000       0.28900000
   122  H          0.86330000       0.02930000       0.21100000
   123  H          0.63670000       0.52930000       0.28900000
   124  H          0.36330000       0.52930000       0.21100000
   125  H          0.86330000       0.97070000       0.71100000
   126  H          0.13670000       0.97070000       0.78900000
   127  H          0.36330000       0.47070000       0.71100000
   128  H          0.63670000       0.47070000       0.78900000
   129  C          0.17022000       0.21416000       0.23296120
   130  C          0.82978000       0.21416000       0.26703880
   131  C          0.67022000       0.71416000       0.23296120
   132  C          0.32978000       0.71416000       0.26703880
   133  C          0.82978000       0.78584000       0.76703880
   134  C          0.17022000       0.78584000       0.73296120
   135  C          0.32978000       0.28584000       0.76703880
   136  C          0.67022000       0.28584000       0.73296120
   137  H          0.19200000       0.32860000       0.25810000
   138  H          0.80800000       0.32860000       0.24190000
   139  H          0.69200000       0.82860000       0.25810000
   140  H          0.30800000       0.82860000       0.24190000
   141  H          0.80800000       0.67140000       0.74190000
   142  H          0.19200000       0.67140000       0.75810000
   143  H          0.30800000       0.17140000       0.74190000
   144  H          0.69200000       0.17140000       0.75810000
   145  C          0.10452000       0.86874000       0.21441140
   146  C          0.89548000       0.86874000       0.28558860
   147  C          0.60452000       0.36874000       0.21441140
   148  C          0.39548000       0.36874000       0.28558860
   149  C          0.89548000       0.13126000       0.78558860
   150  C          0.10452000       0.13126000       0.71441140
   151  C          0.39548000       0.63126000       0.78558860
   152  C          0.60452000       0.63126000       0.71441140
   153  H          0.08170000       0.74840000       0.22710000
   154  H          0.91830000       0.74840000       0.27290000
   155  H          0.58170000       0.24840000       0.22710000
   156  H          0.41830000       0.24840000       0.27290000
   157  H          0.91830000       0.25160000       0.77290000
   158  H          0.08170000       0.25160000       0.72710000
   159  H          0.41830000       0.75160000       0.77290000
   160  H          0.58170000       0.75160000       0.72710000
   161  C          0.05882000       0.61255000       0.84645880
   162  C          0.94118000       0.61255000       0.65354120
   163  C          0.55882000       0.11255000       0.84645880
   164  C          0.44118000       0.11255000       0.65354120
   165  C          0.94118000       0.38745000       0.15354120
   166  C          0.05882000       0.38745000       0.34645880
   167  C          0.44118000       0.88745000       0.15354120
   168  C          0.55882000       0.88745000       0.34645880
   169  H          0.02490000       0.53580000       0.81310000
   170  H          0.97510000       0.53580000       0.68690000
   171  H          0.52490000       0.03580000       0.81310000
   172  H          0.47510000       0.03580000       0.68690000
   173  H          0.97510000       0.46420000       0.18690000
   174  H          0.02490000       0.46420000       0.31310000
   175  H          0.47510000       0.96420000       0.18690000
   176  H          0.52490000       0.96420000       0.31310000
   177  H          0.10980000       0.65910000       0.84050000
   178  H          0.89020000       0.65910000       0.65950000
   179  H          0.60980000       0.15910000       0.84050000
   180  H          0.39020000       0.15910000       0.65950000
   181  H          0.89020000       0.34090000       0.15950000
   182  H          0.10980000       0.34090000       0.34050000
   183  H          0.39020000       0.84090000       0.15950000
   184  H          0.60980000       0.84090000       0.34050000
   185  H          0.02890000       0.73760000       0.85310000
   186  H          0.97110000       0.73760000       0.64690000
   187  H          0.52890000       0.23760000       0.85310000
   188  H          0.47110000       0.23760000       0.64690000
   189  H          0.97110000       0.26240000       0.14690000
   190  H          0.02890000       0.26240000       0.35310000
   191  H          0.47110000       0.76240000       0.14690000
   192  H          0.52890000       0.76240000       0.35310000
   193  C          0.12832170       0.17425000       0.96828900
   194  C          0.87167830       0.17425000       0.53171100
   195  C          0.62832170       0.67425000       0.96828900
   196  C          0.37167830       0.67425000       0.53171100
   197  C          0.87167830       0.82575000       0.03171100
   198  C          0.12832170       0.82575000       0.46828900
   199  C          0.37167830       0.32575000       0.03171100
   200  C          0.62832170       0.32575000       0.46828900
   201  C          0.05681190       0.47795000       0.94513880
   202  C          0.94318810       0.47795000       0.55486120
   203  C          0.55681190      -0.02205000       0.94513880
   204  C          0.44318810      -0.02205000       0.55486120
   205  C          0.94318810       0.52205000       0.05486120
   206  C          0.05681190       0.52205000       0.44513880
   207  C          0.44318810       0.02205000       0.05486120
   208  C          0.55681190       0.02205000       0.44513880
   209  H          0.02460000       0.59330000       0.95090000
   210  H          0.97540000       0.59330000       0.54910000
   211  H          0.52460000       0.09330000       0.95090000
   212  H          0.47540000       0.09330000       0.54910000
   213  H          0.97540000       0.40670000       0.04910000
   214  H          0.02460000       0.40670000       0.45090000
   215  H          0.47540000       0.90670000       0.04910000
   216  H          0.52460000       0.90670000       0.45090000
