data_XOHYIE02
_symmetry_space_group_name_H-M    'P1'
_symmetry_Int_Tables_number       1
loop_
_symmetry_equiv_pos_site_id
_symmetry_equiv_pos_as_xyz
1 x,y,z
_cell_length_a                   11.31834
_cell_length_b                   5.70632
_cell_length_c                   20.52876
_cell_angle_alpha                90.0
_cell_angle_beta                 113.5372
_cell_angle_gamma                90.0
loop_
_atom_site_label
_atom_site_type_symbol
_atom_site_fract_x
_atom_site_fract_y
_atom_site_fract_z
     1  S          0.00185500       0.05924900       0.10853300
     2  S         -0.00185500       0.55924900       0.39146700
     3  S         -0.00185500       0.94075100       0.89146700
     4  S          0.00185500       0.44075100       0.60853300
     5  S          0.81315500       0.38909100       0.91823300
     6  S          0.18684500       0.88909100       0.58176700
     7  S          0.18684500       0.61090900       0.08176700
     8  S          0.81315500       0.11090900       0.41823300
     9  N          0.65692160       0.67813000       0.94841100
    10  N          0.34307840       0.17813000       0.55158900
    11  N          0.34307840       0.32187000       0.05158900
    12  N          0.65692160       0.82187000       0.44841100
    13  N          0.87340170       0.72293000       0.01511900
    14  N          0.12659830       0.22293000       0.48488100
    15  N          0.12659830       0.27707000       0.98488100
    16  N          0.87340170       0.77707000       0.51511900
    17  N          0.75624170       0.00133000       0.05278100
    18  N          0.24375830       0.50133000       0.44721900
    19  N          0.24375830      -0.00133000       0.94721900
    20  N          0.75624170       0.49867000       0.55278100
    21  C          0.54588180       0.59363000       0.89012110
    22  C          0.45411820       0.09363000       0.60987890
    23  C          0.45411820       0.40637000       0.10987890
    24  C          0.54588180       0.90637000       0.39012110
    25  C          0.48942000       0.38644000       0.89510150
    26  C          0.51058000       0.88644000       0.60489850
    27  C          0.51058000       0.61356000       0.10489850
    28  C          0.48942000       0.11356000       0.39510150
    29  C          0.38083000       0.30996000       0.83832000
    30  C          0.61917000       0.80996000       0.66168000
    31  C          0.61917000       0.69004000       0.16168000
    32  C          0.38083000       0.19004000       0.33832000
    33  C          0.33163000       0.44147000       0.77751180
    34  C          0.66837000       0.94147000       0.72248820
    35  C          0.66837000       0.55853000       0.22248820
    36  C          0.33163000       0.05853000       0.27751180
    37  C          0.38683000       0.64747000       0.77304150
    38  C          0.61317000       0.14747000       0.72695850
    39  C          0.61317000       0.35253000       0.22695850
    40  C          0.38683000       0.85253000       0.27304150
    41  C          0.49482000       0.72665000       0.82961130
    42  C          0.50518000       0.22665000       0.67038870
    43  C          0.50518000       0.27335000       0.17038870
    44  C          0.49482000       0.77335000       0.32961130
    45  C          0.77732180       0.60643000       0.96220100
    46  C          0.22267820       0.10643000       0.53779900
    47  C          0.22267820       0.39357000       0.03779900
    48  C          0.77732180       0.89357000       0.46220100
    49  C          0.86342180       0.91403000       0.05401100
    50  C          0.13657820       0.41403000       0.44598900
    51  C          0.13657820       0.08597000       0.94598900
    52  C          0.86342180       0.58597000       0.55401100
    53  C          0.78402000       0.19304000       0.09764120
    54  C          0.21598000       0.69304000       0.40235880
    55  C          0.21598000       0.80696000       0.90235880
    56  C          0.78402000       0.30696000       0.59764120
    57  C          0.90722000       0.25063000       0.13281110
    58  C          0.09278000       0.75063000       0.36718890
    59  C          0.09278000       0.74937000       0.86718890
    60  C          0.90722000       0.24937000       0.63281110
    61  C          0.96752000       0.44354000       0.18567120
    62  C          0.03248000       0.94354000       0.31432880
    63  C          0.03248000       0.55646000       0.81432880
    64  C          0.96752000       0.05646000       0.68567120
    65  H          0.90180000       0.55050000       0.18530000
    66  H          0.09820000       0.05050000       0.31470000
    67  H          0.09820000       0.44950000       0.81470000
    68  H          0.90180000       0.94950000       0.68530000
    69  H          0.02940000       0.52570000       0.17310000
    70  H          0.97060000       0.02570000       0.32690000
    71  H          0.97060000       0.47430000       0.82690000
    72  H          0.02940000       0.97430000       0.67310000
    73  H          0.00980000       0.37740000       0.23230000
    74  H         -0.00980000       0.87740000       0.26770000
    75  H         -0.00980000       0.62260000       0.76770000
    76  H          0.00980000       0.12260000       0.73230000
    77  H          0.71720000       0.27240000       0.10311300
    78  H          0.28280000       0.77240000       0.39688700
    79  H          0.28280000       0.72760000       0.89688700
    80  H          0.71720000       0.22760000       0.60311300
    81  H          0.64720000       0.79340000       0.97231200
    82  H          0.35280000       0.29340000       0.52768800
    83  H          0.35280000       0.20660000       0.02768800
    84  H          0.64720000       0.70660000       0.47231200
    85  H          0.94420000       0.67540000       0.02411000
    86  H          0.05580000       0.17540000       0.47589000
    87  H          0.05580000       0.32460000       0.97589000
    88  H          0.94420000       0.82460000       0.52411000
    89  H          0.54030000       0.86650000       0.82641400
    90  H          0.45970000       0.36650000       0.67358600
    91  H          0.45970000       0.13350000       0.17358600
    92  H          0.54030000       0.63350000       0.32641400
    93  H          0.25630000       0.37950000       0.73851500
    94  H          0.74370000       0.87950000       0.76148500
    95  H          0.74370000       0.62050000       0.26148500
    96  H          0.25630000       0.12050000       0.23851500
    97  H          0.35630000       0.74750000       0.73591700
    98  H          0.64370000       0.24750000       0.76408300
    99  H          0.64370000       0.25250000       0.26408300
   100  H          0.35630000       0.75250000       0.23591700
   101  H          0.35530000       0.15960000       0.83791700
   102  H          0.64470000       0.65960000       0.66208300
   103  H          0.64470000       0.84040000       0.16208300
   104  H          0.35530000       0.34040000       0.33791700
   105  H          0.52430000       0.30050000       0.93591400
   106  H          0.47570000       0.80050000       0.56408600
   107  H          0.47570000       0.69950000       0.06408600
   108  H          0.52430000       0.19950000       0.43591400
