data_XOJXOL02
_symmetry_space_group_name_H-M    'P1'
_symmetry_Int_Tables_number       1
loop_
_symmetry_equiv_pos_site_id
_symmetry_equiv_pos_as_xyz
1 x,y,z
_cell_length_a                   8.94963
_cell_length_b                   13.22944
_cell_length_c                   14.59585
_cell_angle_alpha                90.0
_cell_angle_beta                 90.0
_cell_angle_gamma                90.0
loop_
_atom_site_label
_atom_site_type_symbol
_atom_site_fract_x
_atom_site_fract_y
_atom_site_fract_z
     1  O          0.17622000       0.24415110       0.84471100
     2  O          0.32378000       0.75584890       0.34471100
     3  O          0.67622000       0.25584890       0.15528900
     4  O          0.82378000       0.74415110       0.65528900
     5  H          0.17680000       0.26890000       0.89770000
     6  H          0.32320000       0.73110000       0.39770000
     7  H          0.67680000       0.23110000       0.10230000
     8  H          0.82320000       0.76890000       0.60230000
     9  O          0.35246180       0.36098130       0.81945100
    10  O          0.14753820       0.63901870       0.31945100
    11  O          0.85246180       0.13901870       0.18054900
    12  O          0.64753820       0.86098130       0.68054900
    13  O          0.41394160       0.37401120       0.50245900
    14  O          0.08605840       0.62598880       0.00245900
    15  O          0.91394160       0.12598880       0.49754100
    16  O          0.58605840       0.87401120      -0.00245900
    17  N          0.38738180       0.29699130       0.64036110
    18  N          0.11261820       0.70300870       0.14036110
    19  N          0.88738180       0.20300870       0.35963890
    20  N          0.61261820       0.79699130       0.85963890
    21  H          0.48110000       0.30440000       0.65720000
    22  H          0.01890000       0.69560000       0.15720000
    23  H          0.98110000       0.19560000       0.34280000
    24  H          0.51890000       0.80440000       0.84280000
    25  C          0.27552000       0.29049140       0.79397120
    26  C          0.22448000       0.70950860       0.29397120
    27  C          0.77552000       0.20950860       0.20602880
    28  C          0.72448000       0.79049140       0.70602880
    29  C          0.27693000       0.24816140       0.69797130
    30  C          0.22307000       0.75183860       0.19797130
    31  C          0.77693000       0.25183860       0.30202870
    32  C          0.72307000       0.74816140       0.80202870
    33  H          0.29510000       0.17360000       0.69970000
    34  H          0.20490000       0.82640000       0.19970000
    35  H          0.79510000       0.32640000       0.30030000
    36  H          0.70490000       0.67360000       0.80030000
    37  C          0.12823000       0.27102000       0.64781150
    38  C          0.37177000       0.72898000       0.14781150
    39  C          0.62823000       0.22898000       0.35218850
    40  C          0.87177000       0.77102000       0.85218850
    41  H          0.06480000       0.20980000       0.64490000
    42  H          0.43520000       0.79020000       0.14490000
    43  H          0.56480000       0.29020000       0.35510000
    44  H          0.93520000       0.70980000       0.85510000
    45  H          0.07230000       0.32510000       0.67970000
    46  H          0.42770000       0.67490000       0.17970000
    47  H          0.57230000       0.17490000       0.32030000
    48  H          0.92770000       0.82510000       0.82030000
    49  C          0.17352000       0.30471160       0.55220130
    50  C          0.32648000       0.69528840       0.05220130
    51  C          0.67352000       0.19528840       0.44779870
    52  C          0.82648000       0.80471160       0.94779870
    53  H          0.15720000       0.24990000       0.50720000
    54  H          0.34280000       0.75010000       0.00720000
    55  H          0.65720000       0.25010000       0.49280000
    56  H          0.84280000       0.74990000      -0.00720000
    57  H          0.11540000       0.36480000       0.53300000
    58  H          0.38460000       0.63520000       0.03300000
    59  H          0.61540000       0.13520000       0.46700000
    60  H          0.88460000       0.86480000       0.96700000
    61  C          0.33642000       0.32970130       0.56008120
    62  C          0.16358000       0.67029870       0.06008120
    63  C          0.83642000       0.17029870       0.43991880
    64  C          0.66358000       0.82970130       0.93991880
    65  O          0.75255810       0.62831110       0.18906900
    66  O          0.74744190       0.37168890       0.68906900
    67  O          0.25255810       0.87168890       0.81093100
    68  O          0.24744190       0.12831110       0.31093100
    69  H          0.74980000       0.61150000       0.13360000
    70  H          0.75020000       0.38850000       0.63360000
    71  H          0.24980000       0.88850000       0.86640000
    72  H          0.25020000       0.11150000       0.36640000
    73  O          0.84287840       0.41532110       0.52800900
    74  O          0.65712160       0.58467890       0.02800900
    75  O          0.34287840       0.08467890       0.47199100
    76  O          0.15712160       0.91532110       0.97199100
    77  O          0.84638830       0.47304110       0.20635900
    78  O          0.65361170       0.52695890       0.70635900
    79  O          0.34638830       0.02695890       0.79364100
    80  O          0.15361170       0.97304110       0.29364100
    81  N          0.87625830       0.49671120       0.39208100
    82  N          0.62374170       0.50328880       0.89208100
    83  N          0.37625830       0.00328880       0.60791900
    84  N          0.12374170      -0.00328880       0.10791900
    85  H          0.95280000       0.46010000       0.37380000
    86  H          0.54720000       0.53990000       0.87380000
    87  H          0.45280000       0.03990000       0.62620000
    88  H          0.04720000       0.96010000       0.12620000
    89  C          0.67858000       0.55462140       0.47954120
    90  C          0.82142000       0.44537860       0.97954120
    91  C          0.17858000       0.94537860       0.52045880
    92  C          0.32142000       0.05462140       0.02045880
    93  H          0.70320000       0.60980000       0.52270000
    94  H          0.79680000       0.39020000       0.02270000
    95  H          0.20320000       0.89020000       0.47730000
    96  H          0.29680000       0.10980000       0.97730000
    97  H          0.58640000       0.52040000       0.50060000
    98  H          0.91360000       0.47960000       0.00060000
    99  H          0.08640000       0.97960000       0.49940000
   100  H          0.41360000       0.02040000      -0.00060000
   101  C          0.66018000       0.59508140       0.38188120
   102  C          0.83982000       0.40491860       0.88188120
   103  C          0.16018000       0.90491860       0.61811880
   104  C          0.33982000       0.09508140       0.11811880
   105  H          0.63250000       0.66750000       0.38240000
   106  H          0.86750000       0.33250000       0.88240000
   107  H          0.13250000       0.83250000       0.61760000
   108  H          0.36750000       0.16750000       0.11760000
   109  H          0.58280000       0.55670000       0.34820000
   110  H          0.91720000       0.44330000       0.84820000
   111  H          0.08280000       0.94330000       0.65180000
   112  H          0.41720000       0.05670000       0.15180000
   113  C          0.81528810       0.57949130       0.33868120
   114  C          0.68471190       0.42050870       0.83868120
   115  C          0.31528810       0.92050870       0.66131880
   116  C          0.18471190       0.07949130       0.16131880
   117  H          0.87760000       0.64150000       0.34750000
   118  H          0.62240000       0.35850000       0.84750000
   119  H          0.37760000       0.85850000       0.65250000
   120  H          0.12240000       0.14150000       0.15250000
   121  C          0.80737810       0.55309140       0.23805120
   122  C          0.69262190       0.44690860       0.73805120
   123  C          0.30737810       0.94690860       0.76194880
   124  C          0.19262190       0.05309140       0.26194880
   125  C          0.80578000       0.48093130       0.47156120
   126  C          0.69422000       0.51906870       0.97156120
   127  C          0.30578000       0.01906870       0.52843880
   128  C          0.19422000       0.98093130       0.02843880
   129  O          0.36370160       0.43319110       0.33929900
   130  O          0.13629840       0.56680890       0.83929900
   131  O          0.86370160       0.06680890       0.66070100
   132  O          0.63629840       0.93319110       0.16070100
   133  H          0.35760000       0.41560000       0.39450000
   134  H          0.14240000       0.58440000       0.89450000
   135  H          0.85760000       0.08440000       0.60550000
   136  H          0.64240000       0.91560000       0.10550000
   137  O          0.10874160       0.30373120       0.00588900
   138  O          0.39125840       0.69626880       0.50588900
   139  O          0.60874160       0.19626880      -0.00588900
   140  O          0.89125840       0.80373120       0.49411100
   141  O          0.13296150       0.36831110       0.33161900
   142  O          0.36703850       0.63168890       0.83161900
   143  O          0.63296150       0.13168890       0.66838100
   144  O          0.86703850       0.86831110       0.16838100
   145  N          0.13558170       0.38346130       0.14297110
   146  N          0.36441830       0.61653870       0.64297110
   147  N          0.63558170       0.11653870       0.85702890
   148  N          0.86441830       0.88346130       0.35702890
   149  H          0.04400000       0.37230000       0.16250000
   150  H          0.45600000       0.62770000       0.66250000
   151  H          0.54400000       0.12770000       0.83750000
   152  H          0.95600000       0.87230000       0.33750000
   153  C          0.34552000       0.38339150       0.05071120
   154  C          0.15448000       0.61660850       0.55071120
   155  C          0.84552000       0.11660850       0.94928880
   156  C          0.65448000       0.88339150       0.44928880
   157  H          0.35380000       0.44150000       0.00830000
   158  H          0.14620000       0.55850000       0.50830000
   159  H          0.85380000       0.05850000      -0.00830000
   160  H          0.64620000       0.94150000       0.49170000
   161  H          0.40750000       0.32710000       0.02710000
   162  H          0.09250000       0.67290000       0.52710000
   163  H          0.90750000       0.17290000       0.97290000
   164  H          0.59250000       0.82710000       0.47290000
   165  C          0.39352000       0.41314170       0.14785130
   166  C          0.10648000       0.58685830       0.64785130
   167  C          0.89352000       0.08685830       0.85214870
   168  C          0.60648000       0.91314170       0.35214870
   169  H          0.46070000       0.47250000       0.14670000
   170  H          0.03930000       0.52750000       0.64670000
   171  H          0.96070000       0.02750000       0.85330000
   172  H          0.53930000       0.97250000       0.35330000
   173  H          0.44510000       0.35640000       0.17880000
   174  H          0.05490000       0.64360000       0.67880000
   175  H          0.94510000       0.14360000       0.82120000
   176  H          0.55490000       0.85640000       0.32120000
   177  C          0.24552000       0.43857140       0.19624120
   178  C          0.25448000       0.56142860       0.69624120
   179  C          0.74552000       0.06142860       0.80375880
   180  C          0.75448000       0.93857140       0.30375880
   181  H          0.22570000       0.51270000       0.19070000
   182  H          0.27430000       0.48730000       0.69070000
   183  H          0.72570000       0.98730000       0.80930000
   184  H          0.77430000       0.01270000       0.30930000
   185  C          0.24002000       0.40850140       0.29644120
   186  C          0.25998000       0.59149860       0.79644120
   187  C          0.74002000       0.09149860       0.70355880
   188  C          0.75998000       0.90850140       0.20355880
   189  C          0.18522000       0.35116130       0.06179120
   190  C          0.31478000       0.64883870       0.56179120
   191  C          0.68522000       0.14883870       0.93820880
   192  C          0.81478000       0.85116130       0.43820880
