data_XOJXOL
_symmetry_space_group_name_H-M    'P1'
_symmetry_Int_Tables_number       1
loop_
_symmetry_equiv_pos_site_id
_symmetry_equiv_pos_as_xyz
1 x,y,z
_cell_length_a                   8.19721
_cell_length_b                   14.3402
_cell_length_c                   14.666115
_cell_angle_alpha                90.0
_cell_angle_beta                 90.0
_cell_angle_gamma                90.0
loop_
_atom_site_label
_atom_site_type_symbol
_atom_site_fract_x
_atom_site_fract_y
_atom_site_fract_z
     1  C          0.81874000       0.21333000       0.03293000
     2  C          0.68126000       0.78667000       0.53293000
     3  C          0.18126000       0.71333000       0.46707000
     4  C          0.31874000       0.28667000       0.96707000
     5  C          0.71824000       0.12663000       0.02143000
     6  C          0.78176000       0.87337000       0.52143000
     7  C          0.28176000       0.62663000       0.47857000
     8  C          0.21824000       0.37337000       0.97857000
     9  H          0.77390000       0.08130000       0.98100000
    10  H          0.72610000       0.91870000       0.48100000
    11  H          0.22610000       0.58130000       0.51900000
    12  H          0.27390000       0.41870000       0.01900000
    13  H          0.60980000       0.14150000      -0.00440000
    14  H          0.89020000       0.85850000       0.49560000
    15  H          0.39020000       0.64150000       0.50440000
    16  H          0.10980000       0.35850000       0.00440000
    17  C          0.70294000       0.08843000       0.11843000
    18  C          0.79706000       0.91157000       0.61843000
    19  C          0.29706000       0.58843000       0.38157000
    20  C          0.20294000       0.41157000       0.88157000
    21  H          0.70240000       0.01940000       0.11830000
    22  H          0.79760000       0.98060000       0.61830000
    23  H          0.29760000       0.51940000       0.38170000
    24  H          0.20240000       0.48060000       0.88170000
    25  H          0.60210000       0.11120000       0.14800000
    26  H          0.89790000       0.88880000       0.64800000
    27  H          0.39790000       0.61120000       0.35200000
    28  H          0.10210000       0.38880000       0.85200000
    29  C          0.85505000       0.12623000       0.16703000
    30  C          0.64495000       0.87377000       0.66703000
    31  C          0.14495000       0.62623000       0.33297000
    32  C          0.35505000       0.37377000       0.83297000
    33  H          0.94740000       0.08110000       0.16050000
    34  H          0.55260000       0.91890000       0.66050000
    35  H          0.05260000       0.58110000       0.33950000
    36  H          0.44740000       0.41890000       0.83950000
    37  C          0.82525000       0.14694000       0.26703000
    38  C          0.67475000       0.85306000       0.76703000
    39  C          0.17475000       0.64694000       0.23297000
    40  C          0.32525000       0.35306000       0.73297000
    41  N          0.88915000       0.21043000       0.11502000
    42  N          0.61085000       0.78957000       0.61502000
    43  N          0.11085000       0.71043000       0.38498000
    44  N          0.38915000       0.28957000       0.88498000
    45  H          0.95120000       0.25570000       0.13590000
    46  H          0.54880000       0.74430000       0.63590000
    47  H          0.04880000       0.75570000       0.36410000
    48  H          0.45120000       0.24430000       0.86410000
    49  O          0.83846000       0.27842000       0.97808000
    50  O          0.66154000       0.72158000       0.47808000
    51  O          0.16154000       0.77842000       0.52192000
    52  O          0.33846000       0.22158000       0.02192000
    53  O          0.79886000       0.06932000       0.31287180
    54  O          0.70114000       0.93068000       0.81287180
    55  O          0.20114000       0.56932000       0.18712820
    56  O          0.29886000       0.43068000       0.68712820
    57  H          0.78770000       0.08180000       0.36850000
    58  H          0.71230000       0.91820000       0.86850000
    59  H          0.21230000       0.58180000       0.13150000
    60  H          0.28770000       0.41820000       0.63150000
    61  O          0.82726000       0.22392000       0.29952000
    62  O          0.67274000       0.77608000       0.79952000
    63  O          0.17274000       0.72392000       0.20048000
    64  O          0.32726000       0.27608000       0.70048000
    65  C          0.22885000       0.34283000       0.46873000
    66  C          0.27115000       0.65717000       0.96873000
    67  C          0.77115000       0.84283000       0.03127000
    68  C          0.72885000       0.15717000       0.53127000
    69  C          0.36545000       0.27323000       0.47883000
    70  C          0.13455000       0.72677000       0.97883000
    71  C          0.63455000       0.77323000       0.02117000
    72  C          0.86545000       0.22677000       0.52117000
    73  H          0.33490000       0.22310000       0.52190000
    74  H          0.16510000       0.77690000       0.02190000
    75  H          0.66510000       0.72310000       0.97810000
    76  H          0.83490000       0.27690000       0.47810000
    77  H          0.46600000       0.30400000       0.50090000
    78  H          0.03400000       0.69600000       0.00090000
    79  H          0.53400000       0.80400000      -0.00090000
    80  H          0.96600000       0.19600000       0.49910000
    81  C          0.38995000       0.23403000       0.38223000
    82  C          0.11005000       0.76597000       0.88223000
    83  C          0.61005000       0.73403000       0.11777000
    84  C          0.88995000       0.26597000       0.61777000
    85  H          0.47530000       0.26900000       0.34880000
    86  H          0.02470000       0.73100000       0.84880000
    87  H          0.52470000       0.76900000       0.15120000
    88  H          0.97530000       0.23100000       0.65120000
    89  H          0.41980000       0.16720000       0.38390000
    90  H          0.08020000       0.83280000       0.88390000
    91  H          0.58020000       0.66720000       0.11610000
    92  H          0.91980000       0.33280000       0.61610000
    93  C          0.22206000       0.24833000       0.33863000
    94  C          0.27794000       0.75167000       0.83863000
    95  C          0.77794000       0.74833000       0.16137000
    96  C          0.72206000       0.25167000       0.66137000
    97  H          0.15270000       0.19240000       0.35130000
    98  H          0.34730000       0.80760000       0.85130000
    99  H          0.84730000       0.69240000       0.14870000
   100  H          0.65270000       0.30760000       0.64870000
   101  C          0.22436000       0.26604000       0.23783000
   102  C          0.27564000       0.73396000       0.73783000
   103  C          0.77564000       0.76604000       0.26217000
   104  C          0.72436000       0.23396000       0.76217000
   105  N          0.15695000       0.32772000       0.38842000
   106  N          0.34305000       0.67228000       0.88842000
   107  N          0.84305000       0.82772000       0.11158000
   108  N          0.65695000       0.17228000       0.61158000
   109  H          0.07710000       0.36270000       0.36740000
   110  H          0.42290000       0.63730000       0.86740000
   111  H          0.92290000       0.86270000       0.13260000
   112  H          0.57710000       0.13730000       0.63260000
   113  O          0.18774000       0.40342000       0.52442000
   114  O          0.31226000       0.59658000       0.02442000
   115  O          0.81226000       0.90342000       0.97558000
   116  O          0.68774000       0.09658000       0.47558000
   117  O          0.30194000       0.19912000       0.19412000
   118  O          0.19806000       0.80088000       0.69412000
   119  O          0.69806000       0.69912000       0.30588000
   120  O          0.80194000       0.30088000       0.80588000
   121  H          0.30010000       0.21010000       0.13780000
   122  H          0.19990000       0.78990000       0.63780000
   123  H          0.69990000       0.71010000       0.36220000
   124  H          0.80010000       0.28990000       0.86220000
   125  O          0.15733000       0.33132000       0.20102000
   126  O          0.34267000       0.66868000       0.70102000
   127  O          0.84267000       0.83132000       0.29898000
   128  O          0.65733000       0.16868000       0.79898000
   129  C          0.32126000       0.00943000       0.92193000
   130  C          0.17874000      -0.00943000       0.42193000
   131  C          0.67874000       0.50943000       0.57807000
   132  C          0.82126000       0.49057000       0.07807000
   133  C          0.14215000       0.02853000       0.93433000
   134  C          0.35785000       0.97147000       0.43433000
   135  C          0.85785000       0.52853000       0.56567000
   136  C          0.64215000       0.47147000       0.06567000
   137  H          0.12450000       0.08470000       0.97230000
   138  H          0.37550000       0.91530000       0.47230000
   139  H          0.87550000       0.58470000       0.52770000
   140  H          0.62450000       0.41530000       0.02770000
   141  H          0.08650000       0.97480000       0.96320000
   142  H          0.41350000       0.02520000       0.46320000
   143  H          0.91350000       0.47480000       0.53680000
   144  H          0.58650000       0.52520000       0.03680000
   145  C          0.08025000       0.04403000       0.83683000
   146  C          0.41975000       0.95597000       0.33683000
   147  C          0.91975000       0.54403000       0.66317000
   148  C          0.58025000       0.45597000       0.16317000
   149  H         -0.01100000       0.08920000       0.83560000
   150  H          0.51100000       0.91080000       0.33560000
   151  H          0.01100000       0.58920000       0.66440000
   152  H          0.48900000       0.41080000       0.16440000
   153  H          0.04380000       0.98470000       0.80890000
   154  H          0.45620000       0.01530000       0.30890000
   155  H          0.95620000       0.48470000       0.69110000
   156  H          0.54380000       0.51530000       0.19110000
   157  C          0.23095000       0.08293000       0.78773000
   158  C          0.26905000       0.91707000       0.28773000
   159  C          0.76905000       0.58293000       0.71227000
   160  C          0.73095000       0.41707000       0.21227000
   161  H          0.23430000       0.15210000       0.79640000
   162  H          0.26570000       0.84790000       0.29640000
   163  H          0.76570000       0.65210000       0.70360000
   164  H          0.73430000       0.34790000       0.20360000
   165  C          0.24686000       0.06143000       0.68723000
   166  C          0.25314000       0.93857000       0.18723000
   167  C          0.75314000       0.56143000       0.81277000
   168  C          0.74686000       0.43857000       0.31277000
   169  N          0.36314000       0.04102000       0.83942000
   170  N          0.13686000       0.95898000       0.33942000
   171  N          0.63686000       0.54102000       0.66058000
   172  N          0.86314000       0.45898000       0.16058000
   173  H          0.46310000       0.03670000       0.81810000
   174  H          0.03690000       0.96330000       0.31810000
   175  H          0.53690000       0.53670000       0.68190000
   176  H          0.96310000       0.46330000       0.18190000
   177  O          0.41554000       0.97118000       0.97542000
   178  O          0.08446000       0.02882000       0.47542000
   179  O          0.58446000       0.47118000       0.52458000
   180  O          0.91554000       0.52882000       0.02458000
   181  O          0.10354000       0.06502000       0.64571190
   182  O          0.39646000       0.93498000       0.14571190
   183  O          0.89646000       0.56502000       0.85428810
   184  O          0.60354000       0.43498000       0.35428810
   185  H          0.11630000       0.05600000       0.58960000
   186  H          0.38370000       0.94400000       0.08960000
   187  H          0.88370000       0.55600000       0.91040000
   188  H          0.61630000       0.44400000       0.41040000
   189  O          0.37504000       0.04672000       0.64987190
   190  O          0.12496000       0.95328000       0.14987190
   191  O          0.62496000       0.54672000       0.85012810
   192  O          0.87504000       0.45328000       0.35012810
