data_XOJXOL06
_symmetry_space_group_name_H-M    'P1'
_symmetry_Int_Tables_number       1
loop_
_symmetry_equiv_pos_site_id
_symmetry_equiv_pos_as_xyz
1 x,y,z
_cell_length_a                   4.42501
_cell_length_b                   9.1622
_cell_length_c                   14.7473
_cell_angle_alpha                90.0
_cell_angle_beta                 90.0
_cell_angle_gamma                90.0
loop_
_atom_site_label
_atom_site_type_symbol
_atom_site_fract_x
_atom_site_fract_y
_atom_site_fract_z
     1  O          0.04807000       0.06934000       0.91788860
     2  O          0.45193000       0.93066000       0.41788860
     3  O          0.54807000       0.43066000       0.08211140
     4  O          0.95193000       0.56934000       0.58211140
     5  H         -0.01760000       0.06620000       0.86590000
     6  H          0.51760000       0.93380000       0.36590000
     7  H          0.48240000       0.43380000       0.13410000
     8  H          0.01760000       0.56620000       0.63410000
     9  O          0.72859000       0.88797000       0.93824850
    10  O          0.77141000       0.11203000       0.43824850
    11  O          0.22859000       0.61203000       0.06175150
    12  O          0.27141000       0.38797000       0.56175150
    13  O          0.61877000       0.86758000       0.25680140
    14  O          0.88123000       0.13242000       0.75680140
    15  O          0.11877000       0.63242000       0.74319860
    16  O          0.38123000       0.36758000       0.24319860
    17  N          0.85157000       0.87568000       0.11990140
    18  N          0.64843000       0.12432000       0.61990140
    19  N          0.35157000       0.62432000       0.88009860
    20  N          0.14843000       0.37568000       0.38009860
    21  H          0.80340000       0.78840000       0.10410000
    22  H          0.69660000       0.21160000       0.60410000
    23  H          0.30340000       0.71160000       0.89590000
    24  H          0.19660000       0.28840000       0.39590000
    25  C          0.91697000       0.96967000       0.96639820
    26  C          0.58303000       0.03033000       0.46639820
    27  C          0.41697000       0.53033000       0.03360180
    28  C          0.08303000       0.46967000       0.53360180
    29  C          0.02786000       0.96937000       0.06306170
    30  C          0.47214000       0.03063000       0.56306170
    31  C          0.52786000       0.53063000       0.93693830
    32  C         -0.02786000       0.46937000       0.43693830
    33  H          0.24030000       0.93940000       0.06490000
    34  H          0.25970000       0.06060000       0.56490000
    35  H          0.74030000       0.56060000       0.93510000
    36  H          0.75970000       0.43940000       0.43510000
    37  C         -0.00899000       0.11723000       0.10942000
    38  C          0.50899000       0.88277000       0.60942000
    39  C          0.49101000       0.38277000       0.89058000
    40  C          0.00899000       0.61723000       0.39058000
    41  H          0.18130000       0.16970000       0.11020000
    42  H          0.31870000       0.83030000       0.61020000
    43  H          0.68130000       0.33030000       0.88980000
    44  H          0.81870000       0.66970000       0.38980000
    45  H          0.84150000       0.17600000       0.07810000
    46  H          0.65850000       0.82400000       0.57810000
    47  H          0.34150000       0.32400000       0.92190000
    48  H          0.15850000       0.67600000       0.42190000
    49  C          0.88888000       0.08283000       0.20430190
    50  C          0.61112000       0.91717000       0.70430190
    51  C          0.38888000       0.41717000       0.79569810
    52  C          0.11112000       0.58283000       0.29569810
    53  H          0.05690000       0.08750000       0.24640000
    54  H          0.44310000       0.91250000       0.74640000
    55  H          0.55690000       0.41250000       0.75360000
    56  H          0.94310000       0.58750000       0.25360000
    57  H          0.73370000       0.15070000       0.22390000
    58  H          0.76630000       0.84930000       0.72390000
    59  H          0.23370000       0.34930000       0.77610000
    60  H          0.26630000       0.65070000       0.27610000
    61  C          0.76747000       0.93267000       0.19852160
    62  C          0.73253000       0.06733000       0.69852160
    63  C          0.26747000       0.56733000       0.80147840
    64  C          0.23253000       0.43267000       0.30147840
