data_XULBAL
_symmetry_space_group_name_H-M    'P1'
_symmetry_Int_Tables_number       1
loop_
_symmetry_equiv_pos_site_id
_symmetry_equiv_pos_as_xyz
1 x,y,z
_cell_length_a                   8.9974
_cell_length_b                   15.1046
_cell_length_c                   11.8825
_cell_angle_alpha                90.0
_cell_angle_beta                 101.2035
_cell_angle_gamma                90.0
loop_
_atom_site_label
_atom_site_type_symbol
_atom_site_fract_x
_atom_site_fract_y
_atom_site_fract_z
     1  S          0.94531900       0.18866500       0.26012600
     2  S          0.05468100       0.68866500       0.23987400
     3  S          0.05468100       0.81133500       0.73987400
     4  S          0.94531900       0.31133500       0.76012600
     5  Cl         0.41852170       0.48163900       0.83769120
     6  Cl         0.58147830       0.98163900       0.66230880
     7  Cl         0.58147830       0.51836100       0.16230880
     8  Cl         0.41852170       0.01836100       0.33769120
     9  N          0.06623000       0.11169130       0.45508190
    10  N          0.93377000       0.61169130       0.04491810
    11  N          0.93377000       0.88830870       0.54491810
    12  N          0.06623000       0.38830870       0.95508190
    13  N          0.16882000       0.24808120       0.42598170
    14  N          0.83118000       0.74808120       0.07401830
    15  N          0.83118000       0.75191880       0.57401830
    16  N          0.16882000       0.25191880       0.92598170
    17  O          0.01613000       0.38325120       0.49818180
    18  O         -0.01613000       0.88325120       0.00181820
    19  O         -0.01613000       0.61674880       0.50181820
    20  O          0.01613000       0.11674880      -0.00181820
    21  O          0.51113000       0.28233180       0.43372000
    22  O          0.48887000       0.78233180       0.06628000
    23  O          0.48887000       0.71766820       0.56628000
    24  O          0.51113000       0.21766820       0.93372000
    25  O          0.13942000       0.03222110       0.61757160
    26  O          0.86058000       0.53222110       0.88242840
    27  O          0.86058000       0.96777890       0.38242840
    28  O          0.13942000       0.46777890       0.11757160
    29  N          0.04274000       0.47305180       0.35243000
    30  N          0.95726000       0.97305180       0.14757000
    31  N          0.95726000       0.52694820       0.64757000
    32  N          0.04274000       0.02694820       0.85243000
    33  C          0.44914000       0.42422000       0.71703000
    34  C          0.55086000       0.92422000       0.78297000
    35  C          0.55086000       0.57578000       0.28297000
    36  C          0.44914000       0.07578000       0.21703000
    37  C          0.57624000       0.44042000       0.67233000
    38  C          0.42376000       0.94042000       0.82767000
    39  C          0.42376000       0.55958000       0.32767000
    40  C          0.57624000       0.05958000       0.17233000
    41  H          0.64560000       0.48280000       0.70630000
    42  H          0.35440000       0.98280000       0.79370000
    43  H          0.35440000       0.51720000       0.29370000
    44  H          0.64560000       0.01720000       0.20630000
    45  C          0.60204000       0.39502000       0.57843000
    46  C          0.39796000       0.89502000       0.92157000
    47  C          0.39796000       0.60498000       0.42157000
    48  C          0.60204000       0.10498000       0.07843000
    49  H          0.68800000       0.40680000       0.54840000
    50  H          0.31200000       0.90680000       0.95160000
    51  H          0.31200000       0.59320000       0.45160000
    52  H          0.68800000       0.09320000       0.04840000
    53  C          0.49883000       0.33082000       0.52793000
    54  C          0.50117000       0.83082000       0.97207000
    55  C          0.50117000       0.66918000       0.47207000
    56  C          0.49883000       0.16918000       0.02793000
    57  C          0.37153000       0.31372160       0.57392000
    58  C          0.62847000       0.81372160       0.92608000
    59  C          0.62847000       0.68627840       0.42608000
    60  C          0.37153000       0.18627840       0.07392000
    61  C          0.34743000       0.36079190       0.66873000
    62  C          0.65257000       0.86079190       0.83127000
    63  C          0.65257000       0.63920810       0.33127000
    64  C          0.34743000       0.13920810       0.16873000
    65  H          0.26210000       0.34930000       0.69980000
    66  H          0.73790000       0.84930000       0.80020000
    67  H          0.73790000       0.65070000       0.30020000
    68  H          0.26210000       0.15070000       0.19980000
    69  C          0.65125000       0.28634000       0.39205000
    70  C          0.34875000       0.78634000       0.10795000
    71  C          0.34875000       0.71366000       0.60795000
    72  C          0.65125000       0.21366000       0.89205000
    73  H          0.64420000       0.24870000       0.32600000
    74  H          0.35580000       0.74870000       0.17400000
    75  H          0.35580000       0.75130000       0.67400000
    76  H          0.64420000       0.25130000       0.82600000
    77  H          0.73300000       0.26670000       0.45110000
    78  H          0.26700000       0.76670000       0.04890000
    79  H          0.26700000       0.73330000       0.54890000
    80  H          0.73300000       0.23330000       0.95110000
    81  H          0.66950000       0.34610000       0.37110000
    82  H          0.33050000       0.84610000       0.12890000
    83  H          0.33050000       0.65390000       0.62890000
    84  H          0.66950000       0.15390000       0.87110000
    85  C          0.26593000       0.23994150       0.53072000
    86  C          0.73407000       0.73994150       0.96928000
    87  C          0.73407000       0.76005850       0.46928000
    88  C          0.26593000       0.26005850       0.03072000
    89  C          0.26413000       0.16673160       0.59472000
    90  C          0.73587000       0.66673160       0.90528000
    91  C          0.73587000       0.83326840       0.40528000
    92  C          0.26413000       0.33326840       0.09472000
    93  H          0.33450000       0.16070000       0.66290000
    94  H          0.66550000       0.66070000       0.83710000
    95  H          0.66550000       0.83930000       0.33710000
    96  H          0.33450000       0.33930000       0.16290000
    97  C          0.15683000       0.09862160       0.56022000
    98  C          0.84317000       0.59862160       0.93978000
    99  C          0.84317000       0.90137840       0.43978000
   100  C          0.15683000       0.40137840       0.06022000
   101  C          0.06423000       0.18374150       0.38482000
   102  C          0.93577000       0.68374150       0.11518000
   103  C          0.93577000       0.81625850       0.61518000
   104  C          0.06423000       0.31625850       0.88482000
   105  C          0.15943000       0.33206150       0.36252000
   106  C          0.84057000       0.83206150       0.13748000
   107  C          0.84057000       0.66793850       0.63748000
   108  C          0.15943000       0.16793850       0.86252000
   109  H          0.11610000       0.32140000       0.28230000
   110  H          0.88390000       0.82140000       0.21770000
   111  H          0.88390000       0.67860000       0.71770000
   112  H          0.11610000       0.17860000       0.78230000
   113  H          0.26050000       0.35590000       0.36700000
   114  H          0.73950000       0.85590000       0.13300000
   115  H          0.73950000       0.64410000       0.63300000
   116  H          0.26050000       0.14410000       0.86700000
   117  C          0.06393000       0.39838160       0.41022000
   118  C          0.93607000       0.89838160       0.08978000
   119  C          0.93607000       0.60161840       0.58978000
   120  C          0.06393000       0.10161840       0.91022000
   121  H         -0.00070000       0.07751800       0.43020000
   122  H          0.00070000       0.57751800       0.06980000
   123  H          0.00070000       0.92248200       0.56980000
   124  H         -0.00070000       0.42248200       0.93020000
   125  H          0.07740000       0.47820000       0.28830000
   126  H          0.92260000       0.97820000       0.21170000
   127  H          0.92260000       0.52180000       0.71170000
   128  H          0.07740000       0.02180000       0.78830000
   129  H          0.00340000       0.51420000       0.38130000
   130  H         -0.00340000       0.01420000       0.11870000
   131  H         -0.00340000       0.48580000       0.61870000
   132  H          0.00340000       0.98580000       0.88130000
