data_XULBAL02
_symmetry_space_group_name_H-M    'P1'
_symmetry_Int_Tables_number       1
loop_
_symmetry_equiv_pos_site_id
_symmetry_equiv_pos_as_xyz
1 x,y,z
_cell_length_a                   9.46668
_cell_length_b                   25.9962
_cell_length_c                   12.235611
_cell_angle_alpha                90.0
_cell_angle_beta                 101.8703
_cell_angle_gamma                90.0
loop_
_atom_site_label
_atom_site_type_symbol
_atom_site_fract_x
_atom_site_fract_y
_atom_site_fract_z
     1  C          0.92021000       0.21393000       0.87148000
     2  C          0.07979000       0.71393000       0.62852000
     3  C          0.07979000       0.78607000       0.12852000
     4  C          0.92021000       0.28607000       0.37148000
     5  H          0.01407000       0.21319900       0.85953900
     6  H         -0.01407000       0.71319900       0.64046100
     7  H         -0.01407000       0.78680100       0.14046100
     8  H          0.01407000       0.28680100       0.35953900
     9  C          0.82111300       0.17793000       0.82118000
    10  C          0.17888700       0.67793000       0.67882000
    11  C          0.17888700       0.82207000       0.17882000
    12  C          0.82111300       0.32207000       0.32118000
    13  C          0.68081200       0.17804000       0.83898000
    14  C          0.31918800       0.67804000       0.66102000
    15  C          0.31918800       0.82196000       0.16102000
    16  C          0.68081200       0.32196000       0.33898000
    17  H          0.61604800       0.15305700       0.80490600
    18  H          0.38395200       0.65305700       0.69509400
    19  H          0.38395200       0.84694300       0.19509400
    20  H          0.61604800       0.34694300       0.30490600
    21  C          0.63611000       0.21454000       0.90618000
    22  C          0.36389000       0.71454000       0.59382000
    23  C          0.36389000       0.78546000       0.09382000
    24  C          0.63611000       0.28546000       0.40618000
    25  H          0.54188000       0.21498600       0.91730400
    26  H          0.45812000       0.71498600       0.58269600
    27  H          0.45812000       0.78501400       0.08269600
    28  H          0.54188000       0.28501400       0.41730400
    29  C          0.73881200       0.25133000       0.95748000
    30  C          0.26118800       0.75133000       0.54252000
    31  C          0.26118800       0.74867000       0.04252000
    32  C          0.73881200       0.24867000       0.45748000
    33  C          0.88029000       0.25073000       0.93878000
    34  C          0.11971000       0.75073000       0.56122000
    35  C          0.11971000       0.74927000       0.06122000
    36  C          0.88029000       0.24927000       0.43878000
    37  C         -0.00961000       0.28733000       0.00048000
    38  C          0.00961000       0.78733000       0.49952000
    39  C          0.00961000       0.71267000      -0.00048000
    40  C         -0.00961000       0.21267000       0.50048000
    41  C          0.09431000       0.27013000       0.08118000
    42  C          0.90569000       0.77013000       0.41882000
    43  C          0.90569000       0.72987000       0.91882000
    44  C          0.09431000       0.22987000       0.58118000
    45  H          0.09563300       0.23540900       0.09973000
    46  H          0.90436700       0.73540900       0.40027000
    47  H          0.90436700       0.76459100       0.90027000
    48  H          0.09563300       0.26459100       0.59973000
    49  C          0.20441100       0.30283000       0.14059000
    50  C          0.79558900       0.80283000       0.35941000
    51  C          0.79558900       0.69717000       0.85941000
    52  C          0.20441100       0.19717000       0.64059000
    53  C          0.08099000       0.37353000       0.02347000
    54  C          0.91901000       0.87353000       0.47653000
    55  C          0.91901000       0.62647000       0.97653000
    56  C          0.08099000       0.12647000       0.52347000
    57  C          0.87338000       0.35593000       0.87607000
    58  C          0.12662000       0.85593000       0.62393000
    59  C          0.12662000       0.64407000       0.12393000
    60  C          0.87338000       0.14407000       0.37607000
    61  H          0.86895500       0.39321900       0.87482600
    62  H          0.13104500       0.89321900       0.62517400
    63  H          0.13104500       0.60678100       0.12517400
    64  H          0.86895500       0.10678100       0.37482600
    65  H          0.77964100       0.34307000       0.88362400
    66  H          0.22035900       0.84307000       0.61637600
    67  H          0.22035900       0.65693000       0.11637600
    68  H          0.77964100       0.15693000       0.38362400
    69  C          0.90661200       0.33693000       0.76858000
    70  C          0.09338800       0.83693000       0.73142000
    71  C          0.09338800       0.66307000       0.23142000
    72  C          0.90661200       0.16307000       0.26858000
    73  C          0.56691100       0.28864000       0.05729000
    74  C          0.43308900       0.78864000       0.44271000
    75  C          0.43308900       0.71136000       0.94271000
    76  C          0.56691100       0.21136000       0.55729000
    77  H          0.49355700       0.28374600      -0.00893900
    78  H          0.50644300       0.78374600       0.50893900
    79  H          0.50644300       0.71625400       0.00893900
    80  H          0.49355700       0.21625400       0.49106100
    81  H          0.55250800       0.32110900       0.09056400
    82  H          0.44749200       0.82110900       0.40943600
    83  H          0.44749200       0.67889100       0.90943600
    84  H          0.55250800       0.17889100       0.59056400
    85  H          0.56153100       0.26143700       0.10921200
    86  H          0.43846900       0.76143700       0.39078800
    87  H          0.43846900       0.73856300       0.89078800
    88  H          0.56153100       0.23856300       0.60921200
    89  Cl         0.87483000       0.13060900       0.73582000
    90  Cl         0.12517000       0.63060900       0.76418000
    91  Cl         0.12517000       0.86939100       0.26418000
    92  Cl         0.87483000       0.36939100       0.23582000
    93  H          0.25180000       0.37730000       0.15760000
    94  H          0.74820000       0.87730000       0.34240000
    95  H          0.74820000       0.62270000       0.84240000
    96  H          0.25180000       0.12270000       0.65760000
    97  H          0.80680000       0.32430000       0.60930000
    98  H          0.19320000       0.82430000       0.89070000
    99  H          0.19320000       0.67570000       0.39070000
   100  H          0.80680000       0.17570000       0.10930000
   101  H          0.69918000       0.35411000       0.69300000
   102  H          0.30082000       0.85411000       0.80700000
   103  H          0.30082000       0.64589000       0.30700000
   104  H          0.69918000       0.14589000       0.19300000
   105  N          0.18838000       0.35372000       0.10456000
   106  N          0.81162000       0.85372000       0.39544000
   107  N          0.81162000       0.64628000       0.89544000
   108  N          0.18838000       0.14628000       0.60456000
   109  N          0.98167000       0.33932000       0.97066000
   110  N          0.01833000       0.83932000       0.52934000
   111  N          0.01833000       0.66068000       0.02934000
   112  N          0.98167000       0.16068000       0.47066000
   113  N          0.79089000       0.33523000       0.68317000
   114  N          0.20911000       0.83523000       0.81683000
   115  N          0.20911000       0.66477000       0.31683000
   116  N          0.79089000       0.16477000       0.18317000
   117  O          0.70767000       0.28802000       0.02796000
   118  O          0.29233000       0.78802000       0.47204000
   119  O          0.29233000       0.71198000       0.97204000
   120  O          0.70767000       0.21198000       0.52796000
   121  O          0.30777000       0.29102000       0.21407000
   122  O          0.69223000       0.79102000       0.28593000
   123  O          0.69223000       0.70898000       0.78593000
   124  O          0.30777000       0.20898000       0.71407000
   125  O          0.02977000       0.32582000       0.75785000
   126  O          0.97023000       0.82582000       0.74215000
   127  O          0.97023000       0.67418000       0.24215000
   128  O          0.02977000       0.17418000       0.25785000
   129  S          0.07913000       0.43619700      -0.00508000
   130  S          0.92087000       0.93619700       0.50508000
   131  S          0.92087000       0.56380300       0.00508000
   132  S          0.07913000       0.06380300       0.49492000
   133  C          0.91481100       0.51924000       0.29889000
   134  C          0.08518900       0.01924000       0.20111000
   135  C          0.08518900       0.48076000       0.70111000
   136  C          0.91481100       0.98076000       0.79889000
   137  H          0.91397400       0.49687900       0.23919000
   138  H          0.08602600      -0.00312100       0.26081000
   139  H          0.08602600       0.50312100       0.76081000
   140  H          0.91397400       0.00312100       0.73919000
   141  C          0.04471300       0.53755000       0.37091300
   142  C          0.95528700       0.03755000       0.12908700
   143  C          0.95528700       0.46245000       0.62908700
   144  C          0.04471300       0.96245000       0.87091300
   145  C          0.03971600       0.56985000       0.45561300
   146  C          0.96028400       0.06985000       0.04438700
   147  C          0.96028400       0.43015000       0.54438700
   148  C          0.03971600       0.93015000       0.95561300
   149  H          0.12781700       0.57951300       0.49954400
   150  H          0.87218300       0.07951300       0.00045600
   151  H          0.87218300       0.42048700       0.50045600
   152  H          0.12781700       0.92048700      -0.00045600
   153  C          0.92191500       0.58934000       0.48331000
   154  C          0.07808500       0.08934000       0.01669000
   155  C          0.07808500       0.41066000       0.51669000
   156  C          0.92191500       0.91066000       0.98331000
   157  H          0.92492200       0.61204100       0.54238100
   158  H          0.07507800       0.11204100       0.95761900
   159  H          0.07507800       0.38795900       0.45761900
   160  H          0.92492200       0.88795900       0.04238100
   161  C          0.79111400       0.57214000       0.41431100
   162  C          0.20888600       0.07214000       0.08568900
   163  C          0.20888600       0.42786000       0.58568900
   164  C          0.79111400       0.92786000       0.91431100
   165  C          0.78821200       0.53893000       0.32868000
   166  C          0.21178800       0.03893000       0.17132000
   167  C          0.21178800       0.46107000       0.67132000
   168  C          0.78821200       0.96107000       0.82868000
   169  C          0.64439000       0.52013000       0.26298000
   170  C          0.35561000       0.02013000       0.23702000
   171  C          0.35561000       0.47987000       0.73702000
   172  C          0.64439000       0.97987000       0.76298000
   173  C          0.59361000       0.47403000       0.28508000
   174  C          0.40639000       0.97403000       0.21492000
   175  C          0.40639000       0.52597000       0.71492000
   176  C          0.59361000       0.02597000       0.78508000
   177  H          0.64409800       0.45432900       0.34367300
   178  H          0.35590200       0.95432900       0.15632700
   179  H          0.35590200       0.54567100       0.65632700
   180  H          0.64409800       0.04567100       0.84367300
   181  C          0.46331000       0.45533000       0.21928000
   182  C          0.53669000       0.95533000       0.28072000
   183  C          0.53669000       0.54467000       0.78072000
   184  C          0.46331000       0.04467000       0.71928000
   185  C          0.44279000       0.53393000       0.10677000
   186  C          0.55721000       0.03393000       0.39323000
   187  C          0.55721000       0.46607000       0.89323000
   188  C          0.44279000       0.96607000       0.60677000
   189  C          0.63189000       0.59963000       0.14988000
   190  C          0.36811000       0.09963000       0.35012000
   191  C          0.36811000       0.40037000       0.85012000
   192  C          0.63189000       0.90037000       0.64988000
   193  H          0.60668900       0.60565200       0.06990900
   194  H          0.39331100       0.10565200       0.43009100
   195  H          0.39331100       0.39434800       0.93009100
   196  H          0.60668900       0.89434800       0.56990900
   197  H          0.73618300       0.59760900       0.17115800
   198  H          0.26381700       0.09760900       0.32884200
   199  H          0.26381700       0.40239100       0.82884200
   200  H          0.73618300       0.90239100       0.67115800
   201  C          0.57931100       0.64483000       0.21018000
   202  C          0.42068900       0.14483000       0.28982000
   203  C          0.42068900       0.35517000       0.78982000
   204  C          0.57931100       0.85517000       0.71018000
   205  C          0.67051900       0.62966000       0.53031500
   206  C          0.32948100       0.12966000       0.96968500
   207  C          0.32948100       0.37034000       0.46968500
   208  C          0.67051900       0.87034000       0.03031500
   209  H          0.74879700       0.62168500       0.59129000
   210  H          0.25120300       0.12168500       0.90871000
   211  H          0.25120300       0.37831500       0.40871000
   212  H          0.74879700       0.87831500       0.09129000
   213  H          0.58145200       0.62972600       0.55631500
   214  H          0.41854800       0.12972600       0.94368500
   215  H          0.41854800       0.37027400       0.44368500
   216  H          0.58145200       0.87027400       0.05631500
   217  H          0.68583600       0.66291900       0.50084400
   218  H          0.31416400       0.16291900      -0.00084400
   219  H          0.31416400       0.33708100       0.49915600
   220  H          0.68583600       0.83708100       0.00084400
   221  Cl         0.20674000       0.51662160       0.33804000
   222  Cl         0.79326000       0.01662160       0.16196000
   223  Cl         0.79326000       0.48337840       0.66196000
   224  Cl         0.20674000       0.98337840       0.83804000
   225  H          0.76150000       0.67830000       0.19460000
   226  H          0.23850000       0.17830000       0.30540000
   227  H          0.23850000       0.32170000       0.80540000
   228  H          0.76150000       0.82170000       0.69460000
   229  H          0.30650000       0.47330000       0.08960000
   230  H          0.69350000       0.97330000       0.41040000
   231  H          0.69350000       0.52670000       0.91040000
   232  H          0.30650000       0.02670000       0.58960000
   233  H          0.61690000       0.71420000       0.24580000
   234  H          0.38310000       0.21420000       0.25420000
   235  H          0.38310000       0.28580000       0.75420000
   236  H          0.61690000       0.78580000       0.74580000
   237  N          0.39288000       0.48772000       0.13817000
   238  N          0.60712000       0.98772000       0.36183000
   239  N          0.60712000       0.51228000       0.86183000
   240  N          0.39288000       0.01228000       0.63817000
   241  N          0.56977000       0.55002000       0.17486000
   242  N          0.43023000       0.05002000       0.32514000
   243  N          0.43023000       0.44998000       0.82514000
   244  N          0.56977000       0.94998000       0.67486000
   245  N          0.67008000       0.68513000       0.22008000
   246  N          0.32992000       0.18513000       0.27992000
   247  N          0.32992000       0.31487000       0.77992000
   248  N          0.67008000       0.81487000       0.72008000
   249  O          0.66258000       0.58663000       0.43296000
   250  O          0.33742000       0.08663000       0.06704000
   251  O          0.33742000       0.41337000       0.56704000
   252  O          0.66258000       0.91337000       0.93296000
   253  O          0.40937000       0.41212000       0.23166000
   254  O          0.59063000       0.91212000       0.26834000
   255  O          0.59063000       0.58788000       0.76834000
   256  O          0.40937000       0.08788000       0.73166000
   257  O          0.46237000       0.64512000       0.23746000
   258  O          0.53763000       0.14512000       0.26254000
   259  O          0.53763000       0.35488000       0.76254000
   260  O          0.46237000       0.85488000       0.73746000
   261  S          0.35423000       0.56507800      -0.00282000
   262  S          0.64577000       0.06507800       0.50282000
   263  S          0.64577000       0.43492200       0.00282000
   264  S          0.35423000       0.93492200       0.49718000
