data_XULBAL01
_symmetry_space_group_name_H-M    'P1'
_symmetry_Int_Tables_number       1
loop_
_symmetry_equiv_pos_site_id
_symmetry_equiv_pos_as_xyz
1 x,y,z
_cell_length_a                   8.83196
_cell_length_b                   14.596511
_cell_length_c                   12.00628
_cell_angle_alpha                90.0
_cell_angle_beta                 109.6713
_cell_angle_gamma                90.0
loop_
_atom_site_label
_atom_site_type_symbol
_atom_site_fract_x
_atom_site_fract_y
_atom_site_fract_z
     1  Cl         0.51628600       0.43849300       0.30166400
     2  Cl         0.48371400       0.93849300       0.19833600
     3  Cl         0.48371400       0.56150700       0.69833600
     4  Cl         0.51628600       0.06150700       0.80166400
     5  S         -0.00536600       0.20054300       0.72386500
     6  S          0.00536600       0.70054300       0.77613500
     7  S          0.00536600       0.79945700       0.27613500
     8  S         -0.00536600       0.29945700       0.22386500
     9  O          0.59895140       0.28573900       0.77127110
    10  O          0.40104860       0.78573900       0.72872890
    11  O          0.40104860       0.71426100       0.22872890
    12  O          0.59895140       0.21426100       0.27127110
    13  O          0.07355170       0.38927900       0.51126110
    14  O          0.92644830       0.88927900      -0.01126110
    15  O          0.92644830       0.61072100       0.48873890
    16  O          0.07355170       0.11072100       0.01126110
    17  O          0.15752160       0.01973900       0.44253120
    18  O          0.84247840       0.51973900       0.05746880
    19  O          0.84247840       0.98026100       0.55746880
    20  O          0.15752160       0.48026100       0.94253120
    21  N          0.23400140       0.24727800       0.64426110
    22  N          0.76599860       0.74727800       0.85573890
    23  N          0.76599860       0.75272200       0.35573890
    24  N          0.23400140       0.25272200       0.14426110
    25  N          0.09138170       0.47842100       0.66933140
    26  N          0.90861830       0.97842100       0.83066860
    27  N          0.90861830       0.52157900       0.33066860
    28  N          0.09138170       0.02157900       0.16933140
    29  H          0.13620000       0.48521600       0.75141500
    30  H          0.86380000       0.98521600       0.74858500
    31  H          0.86380000       0.51478400       0.24858500
    32  H          0.13620000       0.01478400       0.25141500
    33  H          0.04020000       0.52881300       0.62161800
    34  H          0.95980000       0.02881300       0.87838200
    35  H          0.95980000       0.47118700       0.37838200
    36  H          0.04020000       0.97118700       0.12161800
    37  N          0.10050160       0.10993900       0.57696120
    38  N          0.89949840       0.60993900       0.92303880
    39  N          0.89949840       0.89006100       0.42303880
    40  N          0.10050160       0.39006100       0.07696120
    41  H          0.02120000       0.06831200       0.57841800
    42  H         -0.02120000       0.56831200       0.92158200
    43  H         -0.02120000       0.93168800       0.42158200
    44  H          0.02120000       0.43168800       0.07841800
    45  C          0.73132000       0.30975170       0.87352190
    46  C          0.26868000       0.80975170       0.62647810
    47  C          0.26868000       0.69024830       0.12647810
    48  C          0.73132000       0.19024830       0.37352190
    49  H          0.82982500       0.29096800       0.86300000
    50  H          0.17017500       0.79096800       0.63700000
    51  H          0.17017500       0.70903200       0.13700000
    52  H          0.82982500       0.20903200       0.36300000
    53  H          0.72072600       0.27959100       0.94156300
    54  H          0.27927400       0.77959100       0.55843700
    55  H          0.27927400       0.72040900       0.05843700
    56  H          0.72072600       0.22040900       0.44156300
    57  H          0.73267000       0.37489100       0.88488000
    58  H          0.26733000       0.87489100       0.61512000
    59  H          0.26733000       0.62510900       0.11512000
    60  H          0.73267000       0.12510900       0.38488000
    61  C          0.58926190       0.32268110       0.66497150
    62  C          0.41073810       0.82268110       0.83502850
    63  C          0.41073810       0.67731890       0.33502850
    64  C          0.58926190       0.17731890       0.16497150
    65  C          0.70381190       0.38061130       0.64613170
    66  C          0.29618810       0.88061130       0.85386830
    67  C          0.29618810       0.61938870       0.35386830
    68  C          0.70381190       0.11938870       0.14613170
    69  H          0.79611700       0.39538400       0.70885700
    70  H          0.20388300       0.89538400       0.79114300
    71  H          0.20388300       0.60461600       0.29114300
    72  H          0.79611700       0.10461600       0.20885700
    73  C          0.68152000       0.41620120       0.53535180
    74  C          0.31848000       0.91620120       0.96464820
    75  C          0.31848000       0.58379880       0.46464820
    76  C          0.68152000       0.08379880       0.03535180
    77  H          0.75855600       0.45473200       0.52348000
    78  H          0.24144400       0.95473200       0.97652000
    79  H          0.24144400       0.54526800       0.47652000
    80  H          0.75855600       0.04526800       0.02348000
    81  C          0.54492000       0.39454110       0.44237170
    82  C          0.45508000       0.89454110       0.05762830
    83  C          0.45508000       0.60545890       0.55762830
    84  C          0.54492000       0.10545890       0.94237170
    85  C          0.43017190       0.33684110       0.45856150
    86  C          0.56982810       0.83684110       0.04143850
    87  C          0.56982810       0.66315890       0.54143850
    88  C          0.43017190       0.16315890       0.95856150
    89  H          0.33838100       0.32266300       0.39508500
    90  H          0.66161900       0.82266300       0.10491500
    91  H          0.66161900       0.67733700       0.60491500
    92  H          0.33838100       0.17733700       0.89508500
    93  C          0.45156180       0.29992100       0.56952150
    94  C          0.54843820       0.79992100       0.93047850
    95  C          0.54843820       0.70007900       0.43047850
    96  C          0.45156180       0.20007900       0.06952150
    97  C          0.33141170       0.23072100       0.57686130
    98  C          0.66858830       0.73072100       0.92313870
    99  C          0.66858830       0.76927900       0.42313870
   100  C          0.33141170       0.26927900       0.07686130
   101  C          0.23750190       0.33620100       0.70101140
   102  C          0.76249810       0.83620100       0.79898860
   103  C          0.76249810       0.66379900       0.29898860
   104  C          0.23750190       0.16379900       0.20101140
   105  H          0.34611500       0.36036600       0.72605900
   106  H          0.65388500       0.86036600       0.77394100
   107  H          0.65388500       0.63963400       0.27394100
   108  H          0.34611500       0.13963400       0.22605900
   109  H          0.20691100       0.32844700       0.77083100
   110  H          0.79308900       0.82844700       0.72916900
   111  H          0.79308900       0.67155300       0.22916900
   112  H          0.20691100       0.17155300       0.27083100
   113  C          0.12406180       0.40406100       0.61771140
   114  C          0.87593820       0.90406100       0.88228860
   115  C          0.87593820       0.59593900       0.38228860
   116  C          0.12406180       0.09593900       0.11771140
   117  C          0.11522180       0.18633110       0.64583140
   118  C          0.88477820       0.68633110       0.85416860
   119  C          0.88477820       0.81366890       0.35416860
   120  C          0.11522180       0.31366890       0.14583140
   121  C          0.18965190       0.08873110       0.50586140
   122  C          0.81034810       0.58873110      -0.00586140
   123  C          0.81034810       0.91126890       0.49413860
   124  C          0.18965190       0.41126890       0.00586140
   125  C          0.31446190       0.15295110       0.51277140
   126  C          0.68553810       0.65295110       0.98722860
   127  C          0.68553810       0.84704890       0.48722860
   128  C          0.31446190       0.34704890       0.01277140
   129  H          0.38551900       0.14099800       0.47234100
   130  H          0.61448100       0.64099800       0.02765900
   131  H          0.61448100       0.85900200       0.52765900
   132  H          0.38551900       0.35900200       0.97234100
