data_XUQSAD23
_symmetry_space_group_name_H-M    'P1'
_symmetry_Int_Tables_number       1
loop_
_symmetry_equiv_pos_site_id
_symmetry_equiv_pos_as_xyz
1 x,y,z
_cell_length_a                   9.517014
_cell_length_b                   10.806011
_cell_length_c                   11.928019
_cell_angle_alpha                101.6639
_cell_angle_beta                 99.6317
_cell_angle_gamma                90.2468
loop_
_atom_site_label
_atom_site_type_symbol
_atom_site_fract_x
_atom_site_fract_y
_atom_site_fract_z
     1  S          0.18688110       0.02826100       0.52664100
     2  S          0.81311890       0.97173900       0.47335900
     3  S          0.35275120       0.04072100       0.31681100
     4  S          0.64724880       0.95927900       0.68318900
     5  S          0.40138120       0.20881100       0.68772110
     6  S          0.59861880       0.79118900       0.31227890
     7  S          0.56551120       0.22154100       0.47411100
     8  S          0.43448880       0.77845900       0.52588900
     9  O          0.06473000       0.00083000       0.70463000
    10  O          0.93527000      -0.00083000       0.29537000
    11  O          0.27164000       0.17953000       0.86193000
    12  O          0.72836000       0.82047000       0.13807000
    13  C          0.34074000       0.12374000       0.54754000
    14  C          0.65926000       0.87626000       0.45246000
    15  C          0.41155000       0.12824000       0.45684000
    16  C          0.58845000       0.87176000       0.54316000
    17  C          0.17375000       0.05954000       0.67364000
    18  C          0.82625000       0.94046000       0.32636000
    19  C          0.48745000       0.09874000       0.25744000
    20  C          0.51255000       0.90126000       0.74256000
    21  H          0.49270000       0.07200000       0.17300000
    22  H          0.50730000       0.92800000       0.82700000
    23  C          0.26985000       0.14364000       0.74614000
    24  C          0.73015000       0.85636000       0.25386000
    25  C          0.58415000       0.18114000       0.33014000
    26  C          0.41585000       0.81886000       0.66986000
    27  H          0.66450000       0.21790000       0.30150000
    28  H          0.33550000       0.78210000       0.69850000
    29  C          0.18886000       0.09045000       0.90125000
    30  C          0.81114000       0.90955000       0.09875000
    31  H          0.17040000       0.12850000       0.98090000
    32  H          0.82960000       0.87150000       0.01910000
    33  H          0.24460000       0.01300000       0.90630000
    34  H          0.75540000      -0.01300000       0.09370000
    35  C          0.05136000       0.05436000       0.82285000
    36  C          0.94864000       0.94564000       0.17715000
    37  H         -0.00110000      -0.00850000       0.85330000
    38  H          0.00110000       0.00850000       0.14670000
    39  H         -0.00740000       0.13090000       0.82370000
    40  H          0.00740000       0.86910000       0.17630000
    41  S          0.31961110       0.46943900       0.47111100
    42  S          0.68038890       0.53056100       0.52888900
    43  S          0.15430120       0.45883100       0.68106100
    44  S          0.84569880       0.54116900       0.31893900
    45  S          0.10418120       0.28802100       0.30992110
    46  S          0.89581880       0.71197900       0.69007890
    47  S          0.93982890       0.27752100       0.52486100
    48  S          0.06017110       0.72247900       0.47513900
    49  O          0.43843000       0.49913000       0.29163000
    50  O          0.56157000       0.50087000       0.70837000
    51  O          0.23163000       0.32003000       0.13553000
    52  O          0.76837000       0.67997000       0.86447000
    53  C          0.16484000       0.37394000       0.45064000
    54  C          0.83516000       0.62606000       0.54936000
    55  C          0.09434000       0.37084000       0.54144000
    56  C          0.90566000       0.62916000       0.45856000
    57  C          0.33105000       0.43754000       0.32424000
    58  C          0.66895000       0.56246000       0.67576000
    59  C          0.01625000       0.40504000       0.74054000
    60  C         -0.01625000       0.59496000       0.25946000
    61  H          0.00990000       0.43470000       0.82440000
    62  H         -0.00990000       0.56530000       0.17560000
    63  C          0.23495000       0.35484000       0.25154000
    64  C          0.76505000       0.64516000       0.74846000
    65  C          0.91895000       0.32234000       0.66984000
    66  C          0.08105000       0.67766000       0.33016000
    67  H          0.83770000       0.28770000       0.69890000
    68  H          0.16230000       0.71230000       0.30110000
    69  C          0.45076000       0.44675000       0.17345000
    70  C          0.54924000       0.55325000       0.82655000
    71  H          0.50840000       0.36940000       0.17130000
    72  H          0.49160000       0.63060000       0.82870000
    73  H          0.50360000       0.50950000       0.14320000
    74  H          0.49640000       0.49050000       0.85680000
    75  C          0.31256000       0.41275000       0.09575000
    76  C          0.68744000       0.58725000       0.90425000
    77  H          0.25620000       0.49030000       0.09360000
    78  H          0.74380000       0.50970000       0.90640000
    79  H          0.32910000       0.37690000       0.01510000
    80  H          0.67090000       0.62310000       0.98490000
    81  P          0.75057150       0.24712130      -0.00133130
    82  P          0.24942850       0.75287870       0.00133130
    83  F          0.68766000       0.11264000       0.93356000
    84  F          0.31234000       0.88736000       0.06644000
    85  F          0.81257000       0.38144000       0.06414000
    86  F          0.18743000       0.61856000       0.93586000
    87  F          0.79285000       0.27014000       0.88137000
    88  F          0.20715000       0.72986000       0.11863000
    89  F          0.70815000       0.22214000       0.11493000
    90  F          0.29185000       0.77786000       0.88507000
    91  F          0.89674000       0.18514000       0.03204000
    92  F          0.10326000       0.81486000       0.96796000
    93  F          0.60474000       0.31004000       0.96466000
    94  F          0.39526000       0.68996000       0.03534000
