data_XUQSAD09
_symmetry_space_group_name_H-M    'P1'
_symmetry_Int_Tables_number       1
loop_
_symmetry_equiv_pos_site_id
_symmetry_equiv_pos_as_xyz
1 x,y,z
_cell_length_a                   9.7603
_cell_length_b                   11.083018
_cell_length_c                   11.2033
_cell_angle_alpha                101.66116
_cell_angle_beta                 100.21913
_cell_angle_gamma                88.72317
loop_
_atom_site_label
_atom_site_type_symbol
_atom_site_fract_x
_atom_site_fract_y
_atom_site_fract_z
     1  S          0.22308110       0.03707100       0.48208100
     2  S          0.77691890       0.96292900       0.51791900
     3  S          0.40530120       0.07073100       0.27881100
     4  S          0.59469880       0.92926900       0.72118900
     5  S          0.42736120       0.18919100       0.67605100
     6  S          0.57263880       0.81080900       0.32394900
     7  S          0.60238120       0.22775100       0.46980110
     8  S          0.39761880       0.77224900       0.53019890
     9  O          0.07833000       0.00773000       0.65343000
    10  O          0.92167000      -0.00773000       0.34657000
    11  O          0.28043000       0.15533000       0.84363000
    12  O          0.71957000       0.84467000       0.15637000
    13  C          0.37594000       0.12384000       0.52154000
    14  C          0.62406000       0.87616000       0.47846000
    15  C          0.45294000       0.13834000       0.43334000
    16  C          0.54706000       0.86166000       0.56666000
    17  C          0.19354000       0.06114000       0.63374000
    18  C          0.80646000       0.93886000       0.36626000
    19  C          0.54105000       0.13514000       0.23204000
    20  C          0.45895000       0.86486000       0.76796000
    21  H          0.55190000       0.11880000       0.14310000
    22  H          0.44810000       0.88120000       0.85690000
    23  C          0.28744000       0.13014000       0.72214000
    24  C          0.71256000       0.86986000       0.27786000
    25  C          0.63135000       0.20774000       0.32004000
    26  C          0.36865000       0.79226000       0.67996000
    27  H          0.71200000       0.24850000       0.29940000
    28  H          0.28800000       0.75150000       0.70060000
    29  C          0.14276000       0.12325000       0.86375000
    30  C          0.85724000       0.87675000       0.13625000
    31  H          0.15000000       0.11430000       0.95160000
    32  H          0.85000000       0.88570000       0.04840000
    33  H          0.07800000       0.19250000       0.85080000
    34  H          0.92200000       0.80750000       0.14920000
    35  C          0.08336000       0.01025000       0.78265000
    36  C          0.91664000      -0.01025000       0.21735000
    37  H          0.13950000       0.93910000       0.80540000
    38  H          0.86050000       0.06090000       0.19460000
    39  H         -0.01340000      -0.00100000       0.79710000
    40  H          0.01340000       0.00100000       0.20290000
    41  S          0.33090120       0.45999100       0.46986100
    42  S          0.66909880       0.54000900       0.53013900
    43  S          0.17646130       0.46535110       0.69519110
    44  S          0.82353870       0.53464890       0.30480890
    45  S          0.12043120       0.28177100       0.30357110
    46  S          0.87956880       0.71822900       0.69642890
    47  S          0.96170880       0.28878110       0.54184110
    48  S          0.03829120       0.71121890       0.45815890
    49  O          0.43223000       0.49103000       0.27313000
    50  O          0.56777000       0.50897000       0.72687000
    51  O          0.23224000       0.31583000       0.11163000
    52  O          0.76776000       0.68417000       0.88837000
    53  C          0.17864000       0.37104000       0.45194000
    54  C          0.82136000       0.62896000       0.54806000
    55  C          0.11394000       0.37294000       0.54844000
    56  C          0.88606000       0.62706000       0.45156000
    57  C          0.33375000       0.42964000       0.31094000
    58  C          0.66625000       0.57036000       0.68906000
    59  C          0.03385000       0.43695000       0.75914000
    60  C          0.96615000       0.56305000       0.24086000
    61  H          0.02480000       0.47950000       0.84500000
    62  H          0.97520000       0.52050000       0.15500000
    63  C          0.23985000       0.34914000       0.23604000
    64  C          0.76015000       0.65086000       0.76396000
    65  C          0.93685000       0.35725000       0.69114000
    66  C          0.06315000       0.64275000       0.30886000
    67  H          0.85320000       0.33720000       0.72400000
    68  H          0.14680000       0.66280000       0.27600000
    69  C          0.44445000       0.43885000       0.14624000
    70  C          0.55555000       0.56115000       0.85376000
    71  H          0.50170000       0.36270000       0.14350000
    72  H          0.49830000       0.63730000       0.85650000
    73  H          0.49290000       0.49930000       0.11210000
    74  H          0.50710000       0.50070000       0.88790000
    75  C          0.30276000       0.40745000       0.06765000
    76  C          0.69724000       0.59255000       0.93235000
    77  H          0.24540000       0.48350000       0.07030000
    78  H          0.75460000       0.51650000       0.92970000
    79  H          0.31300000       0.37500000       0.97970000
    80  H          0.68700000       0.62500000       0.02030000
    81  P          0.76877130       0.21997110       0.96895890
    82  P          0.23122870       0.78002890       0.03104110
    83  F          0.66184000       0.11033000       0.96417000
    84  F          0.33816000       0.88967000       0.03583000
    85  F          0.87543000       0.32933000       0.97327000
    86  F          0.12457000       0.67067000       0.02673000
    87  F          0.77184000       0.17413000       0.82427000
    88  F          0.22816000       0.82587000       0.17573000
    89  F          0.76623000       0.26363000       0.11263000
    90  F          0.23377000       0.73637000       0.88737000
    91  F          0.89593000       0.13303000      -0.00043000
    92  F          0.10407000       0.86697000       0.00043000
    93  F          0.63974000       0.30563000       0.93697000
    94  F          0.36026000       0.69437000       0.06303000
