data_XUQSAD06
_symmetry_space_group_name_H-M    'P1'
_symmetry_Int_Tables_number       1
loop_
_symmetry_equiv_pos_site_id
_symmetry_equiv_pos_as_xyz
1 x,y,z
_cell_length_a                   9.7536
_cell_length_b                   10.9504
_cell_length_c                   11.4426
_cell_angle_alpha                101.813
_cell_angle_beta                 99.243
_cell_angle_gamma                90.643
loop_
_atom_site_label
_atom_site_type_symbol
_atom_site_fract_x
_atom_site_fract_y
_atom_site_fract_z
     1  S          0.21940190       0.03037160       0.49401170
     2  S          0.78059810       0.96962840       0.50598830
     3  S          0.39452000       0.05971180       0.28812180
     4  S          0.60548000       0.94028820       0.71187820
     5  S          0.42182000       0.19690160       0.67370170
     6  S          0.57818000       0.80309840       0.32629830
     7  S          0.59292000       0.22724170       0.46525190
     8  S          0.40708000       0.77275830       0.53474810
     9  O          0.08105000       0.00294000       0.66675000
    10  O          0.91895000      -0.00294000       0.33325000
    11  O          0.27745000       0.16785000       0.84255000
    12  O          0.72255000       0.83215000       0.15745000
    13  C          0.36897000       0.12146000       0.52476000
    14  C          0.63103000       0.87854000       0.47524000
    15  C          0.44437000       0.13446000       0.43536000
    16  C          0.55563000       0.86554000       0.56464000
    17  C          0.19368000       0.05866000       0.64047000
    18  C          0.80632000       0.94134000       0.35953000
    19  C          0.52809000       0.12458000       0.23588000
    20  C          0.47191000       0.87542000       0.76412000
    21  H          0.53680000       0.10630000       0.14800000
    22  H          0.46320000       0.89370000       0.85200000
    23  C          0.28428000       0.13576000       0.72327000
    24  C          0.71572000       0.86424000       0.27673000
    25  C          0.61919000       0.20047000       0.31918000
    26  C          0.38081000       0.79953000       0.68082000
    27  H          0.70070000       0.24050000       0.29630000
    28  H          0.29930000       0.75950000       0.70370000
    29  C          0.16511300       0.10821200       0.87319000
    30  C          0.83488700       0.89178800       0.12681000
    31  H          0.20500000       0.05500000       0.93040000
    32  H          0.79500000       0.94500000       0.06960000
    33  H          0.11430000       0.17490000       0.92010000
    34  H          0.88570000       0.82510000       0.07990000
    35  C          0.06941100       0.03661100       0.78969000
    36  C          0.93058900       0.96338900       0.21031000
    37  H          0.97950000       0.07910000       0.79340000
    38  H          0.02050000       0.92090000       0.20660000
    39  H          0.05840000       0.95690000       0.81770000
    40  H          0.94160000       0.04310000       0.18230000
    41  S          0.32746190       0.45810160       0.47295170
    42  S          0.67253810       0.54189840       0.52704830
    43  S          0.17152000       0.46307170       0.69374180
    44  S          0.82848000       0.53692830       0.30625820
    45  S          0.11502000       0.27677170       0.31294170
    46  S          0.88498000       0.72322830       0.68705830
    47  S          0.95528000       0.28476180       0.54456190
    48  S          0.04472000       0.71523820       0.45543810
    49  O          0.42795000       0.49225000       0.28015000
    50  O          0.57205000       0.50775000       0.71985000
    51  O          0.22576000       0.31295000       0.12424000
    52  O          0.77424000       0.68705000       0.87576000
    53  C          0.17497000       0.36756000       0.45726000
    54  C          0.82503000       0.63244000       0.54274000
    55  C          0.10787000       0.36986000       0.55267000
    56  C          0.89213000       0.63014000       0.44733000
    57  C          0.32858000       0.42756000       0.31817000
    58  C          0.67142000       0.57244000       0.68183000
    59  C          0.02959000       0.43498000       0.75698000
    60  C          0.97041000       0.56502000       0.24302000
    61  H          0.02070000       0.47810000       0.84110000
    62  H          0.97930000       0.52190000       0.15890000
    63  C          0.23618000       0.34706000       0.24787000
    64  C          0.76382000       0.65294000       0.75213000
    65  C          0.93161000       0.35338000       0.68948000
    66  C          0.06839000       0.64662000       0.31052000
    67  H          0.84700000       0.33230000       0.72160000
    68  H          0.15300000       0.66770000       0.27840000
    69  C          0.43479000       0.44268000       0.15607000
    70  C          0.56521000       0.55732000       0.84393000
    71  H          0.49350000       0.36810000       0.15030000
    72  H          0.50650000       0.63190000       0.84970000
    73  H          0.48080000       0.50670000       0.12240000
    74  H          0.51920000       0.49330000       0.87760000
    75  C          0.29781000       0.40629000       0.08278000
    76  C          0.70219000       0.59371000       0.91722000
    77  H          0.24060000       0.48170000       0.08480000
    78  H          0.75940000       0.51830000       0.91520000
    79  H          0.30910000       0.37340000      -0.00330000
    80  H          0.69090000       0.62660000       0.00330000
    81  P          0.76022000       0.22882000       0.97871810
    82  P          0.23978000       0.77118000       0.02128190
    83  F          0.64577000       0.12356000       0.96555000
    84  F          0.35423000       0.87644000       0.03445000
    85  F          0.87537000       0.33245000      -0.01035000
    86  F          0.12463000       0.66755000       0.01035000
    87  F          0.74798000       0.20837000       0.83775000
    88  F          0.25202000       0.79163000       0.16225000
    89  F          0.77018000       0.24596000       0.11675000
    90  F          0.22982000       0.75404000       0.88325000
    91  F          0.87237000       0.13246000       0.98123000
    92  F          0.12763000       0.86754000       0.01877000
    93  F          0.64689000       0.32288000       0.97449000
    94  F          0.35311000       0.67712000       0.02551000
