data_XUVLIK03
_symmetry_space_group_name_H-M    'P1'
_symmetry_Int_Tables_number       1
loop_
_symmetry_equiv_pos_site_id
_symmetry_equiv_pos_as_xyz
1 x,y,z
_cell_length_a                   9.20459
_cell_length_b                   11.632512
_cell_length_c                   11.802811
_cell_angle_alpha                97.2653
_cell_angle_beta                 111.4002
_cell_angle_gamma                96.6373
loop_
_atom_site_label
_atom_site_type_symbol
_atom_site_fract_x
_atom_site_fract_y
_atom_site_fract_z
     1  N          0.48041860       0.43066100       0.17141100
     2  N          0.51958140       0.56933900       0.82858900
     3  C          0.71488000       0.54626140       0.15113150
     4  C          0.28512000       0.45373860       0.84886850
     5  H          0.69262300       0.62011300       0.17207200
     6  H          0.30737700       0.37988700       0.82792800
     7  C          0.84508000       0.53463170       0.12344170
     8  C          0.15492000       0.46536830       0.87655830
     9  H          0.91166700       0.60202100       0.12528100
    10  H          0.08833300       0.39797900       0.87471900
    11  C          0.88078000       0.42510180       0.09268170
    12  C          0.11922000       0.57489820       0.90731830
    13  H          0.97036100       0.42026800       0.07448600
    14  H          0.02963900       0.57973200       0.92551400
    15  C          0.78438000       0.32337150       0.08893150
    16  C          0.21562000       0.67662850       0.91106850
    17  H          0.80837000       0.25003000       0.06856200
    18  H          0.19163000       0.74997000       0.93143800
    19  C          0.65103830       0.33222120       0.11604110
    20  C          0.34896170       0.66777880       0.88395890
    21  C          0.61672830       0.44384120       0.14689110
    22  C          0.38327170       0.55615880       0.85310890
    23  C          0.42682840       0.31187110       0.15798110
    24  C          0.57317160       0.68812890       0.84201890
    25  C          0.52920840       0.24759110       0.12340110
    26  C          0.47079160       0.75240890       0.87659890
    27  C          0.50242810       0.12558120       0.10890120
    28  C          0.49757190       0.87441880       0.89109880
    29  H          0.57026500       0.08205900       0.08758200
    30  H          0.42973500       0.91794100       0.91241800
    31  C          0.37398000       0.07011130       0.12656140
    32  C          0.62602000       0.92988870       0.87343860
    33  H          0.35494700      -0.01153600       0.11671400
    34  H          0.64505300       0.01153600       0.88328600
    35  C          0.27290810       0.13423140       0.15878130
    36  C          0.72709190       0.86576860       0.84121870
    37  H          0.18676700       0.09450900       0.16981200
    38  H          0.81323300       0.90549100       0.83018800
    39  C          0.29626820       0.25511130       0.17496130
    40  C          0.70373180       0.74488870       0.82503870
    41  H          0.22751400       0.29745900       0.19642800
    42  H          0.77248600       0.70254100       0.80357200
    43  C          0.41598000       0.52646140       0.21608140
    44  C          0.58402000       0.47353860       0.78391860
    45  H          0.30318300       0.50129300       0.19288800
    46  H          0.69681700       0.49870700       0.80711200
    47  H          0.42968300       0.59247100       0.17609000
    48  H          0.57031700       0.40752900       0.82391000
    49  C          0.49408000       0.56710130       0.35599140
    50  C          0.50592000       0.43289870       0.64400860
    51  H          0.60786100       0.58560300       0.37945200
    52  H          0.39213900       0.41439700       0.62054800
    53  H          0.45877000       0.63903900       0.37768200
    54  H          0.54123000       0.36096100       0.62231800
    55  C          0.45981820       0.47859140       0.43051130
    56  C          0.54018180       0.52140860       0.56948870
    57  H          0.49475100       0.40641400       0.40899600
    58  H          0.50524900       0.59358600       0.59100400
    59  H          0.34620400       0.46049300       0.40804300
    60  H          0.65379600       0.53950700       0.59195700
    61  N          0.05031130       0.81528100       0.47606100
    62  N          0.94968870       0.18471900       0.52393900
    63  C          0.90560850       0.84437100       0.46722120
    64  C          0.09439150       0.15562900       0.53277880
    65  C          0.83646810       0.85092130       0.55412140
    66  C          0.16353190       0.14907870       0.44587860
    67  H          0.88718000       0.83262200       0.63186200
    68  H          0.11282000       0.16737800       0.36813800
    69  C          0.69098000       0.88521140       0.52181160
    70  C          0.30902000       0.11478860       0.47818840
    71  H          0.64306200       0.89009600       0.57886700
    72  H          0.35693800       0.10990400       0.42113300
    73  C          0.61384810       0.91277140       0.40615170
    74  C          0.38615190       0.08722860       0.59384830
    75  H          0.51623600       0.93698900       0.38745200
    76  H          0.48376400       0.06301100       0.61254800
    77  C          0.68031830       0.90461130       0.31893150
    78  C          0.31968170       0.09538870       0.68106850
    79  H          0.62715100       0.92150200       0.24093000
    80  H          0.37284900       0.07849800       0.75907000
    81  C          0.82817850       0.87076100       0.34871120
    82  C          0.17182150       0.12923900       0.65128880
    83  C          0.93086850       0.85516110       0.28304120
    84  C          0.06913150       0.14483890       0.71695880
    85  C          0.92130820       0.86640130       0.16473130
    86  C          0.07869180       0.13359870       0.83526870
    87  H          0.83276400       0.88903000       0.10937100
    88  H          0.16723600       0.11097000       0.89062900
    89  C          0.04432000       0.84366150       0.13059150
    90  C          0.95568000       0.15633850       0.86940850
    91  H          0.03829800       0.85072400       0.05144900
    92  H          0.96170200       0.14927600       0.94855100
    93  C          0.17731190       0.81032140       0.21246150
    94  C          0.82268810       0.18967860       0.78753850
    95  H          0.25905700       0.79563400       0.18719900
    96  H          0.74094300       0.20436600       0.81280100
    97  C          0.19086170       0.79852130       0.33022140
    98  C          0.80913830       0.20147870       0.66977860
    99  H          0.28032200       0.77618800       0.38476200
   100  H          0.71967800       0.22381200       0.61523800
   101  C          0.06646150       0.82106110       0.36514120
   102  C          0.93353850       0.17893890       0.63485880
   103  C          0.16112180       0.77142130       0.57748130
   104  C          0.83887820       0.22857870       0.42251870
   105  H          0.13513200       0.78741600       0.64986200
   106  H          0.86486800       0.21258400       0.35013800
   107  H          0.26737600       0.81334900       0.59780900
   108  H          0.73262400       0.18665100       0.40219100
   109  C          0.15841180       0.64024140       0.54663150
   110  C          0.84158820       0.35975860       0.45336850
   111  H          0.18756200       0.62506800       0.47573100
   112  H          0.81243800       0.37493200       0.52426900
   113  H          0.23783400       0.61711700       0.61595800
   114  H          0.76216600       0.38288300       0.38404200
   115  C          0.00225190       0.56566130       0.51859160
   116  C         -0.00225190       0.43433870       0.48140840
   117  H          0.92184100       0.59136400       0.45201000
   118  H          0.07815900       0.40863600       0.54799000
   119  H          0.97559200       0.57775900       0.59099700
   120  H          0.02440800       0.42224100       0.40900300
