data_XUVLIK
_symmetry_space_group_name_H-M    'P1'
_symmetry_Int_Tables_number       1
loop_
_symmetry_equiv_pos_site_id
_symmetry_equiv_pos_as_xyz
1 x,y,z
_cell_length_a                   17.8982
_cell_length_b                   6.25166
_cell_length_c                   21.6143
_cell_angle_alpha                90.0
_cell_angle_beta                 111.2665
_cell_angle_gamma                90.0
loop_
_atom_site_label
_atom_site_type_symbol
_atom_site_fract_x
_atom_site_fract_y
_atom_site_fract_z
     1  N          0.35845000       0.96482000       0.15573000
     2  N          0.64155000       0.46482000       0.34427000
     3  N          0.64155000       0.03518000       0.84427000
     4  N          0.35845000       0.53518000       0.65573000
     5  C          0.39306000       0.08961000       0.12044000
     6  C          0.60694000       0.58961000       0.37956000
     7  C          0.60694000       0.91039000       0.87956000
     8  C          0.39306000       0.41039000       0.62044000
     9  C          0.40306000       0.04901300       0.06004000
    10  C          0.59694000       0.54901300       0.43996000
    11  C          0.59694000       0.95098700       0.93996000
    12  C          0.40306000       0.45098700       0.56004000
    13  H          0.38400000       0.92080000       0.03580000
    14  H          0.61600000       0.42080000       0.46420000
    15  H          0.61600000       0.07920000       0.96420000
    16  H          0.38400000       0.57920000       0.53580000
    17  C          0.44186000       0.20491400       0.03764000
    18  C          0.55814000       0.70491400       0.46236000
    19  C          0.55814000       0.79508600       0.96236000
    20  C          0.44186000       0.29508600       0.53764000
    21  H          0.44760000       0.18360000      -0.00400000
    22  H          0.55240000       0.68360000       0.50400000
    23  H          0.55240000       0.81640000       0.00400000
    24  H          0.44760000       0.31640000       0.49600000
    25  C          0.47267000       0.38981300       0.07245000
    26  C          0.52733000       0.88981300       0.42755000
    27  C          0.52733000       0.61018700       0.92755000
    28  C          0.47267000       0.11018700       0.57245000
    29  H          0.50050000       0.48920000       0.05540000
    30  H          0.49950000      -0.01080000       0.44460000
    31  H          0.49950000       0.51080000       0.94460000
    32  H          0.50050000       0.01080000       0.55540000
    33  C          0.46306000       0.43051100       0.13184000
    34  C          0.53694000       0.93051100       0.36816000
    35  C          0.53694000       0.56948900       0.86816000
    36  C          0.46306000       0.06948900       0.63184000
    37  H          0.48310000       0.55860000       0.15560000
    38  H          0.51690000       0.05860000       0.34440000
    39  H          0.51690000       0.44140000       0.84440000
    40  H          0.48310000       0.94140000       0.65560000
    41  C          0.42346000       0.28001000       0.15594000
    42  C          0.57654000       0.78001000       0.34406000
    43  C          0.57654000       0.71999000       0.84406000
    44  C          0.42346000       0.21999000       0.65594000
    45  C          0.36286000       0.07731000       0.21264000
    46  C          0.63714000       0.57731000       0.28736000
    47  C          0.63714000       0.92269000       0.78736000
    48  C          0.36286000       0.42269000       0.71264000
    49  C          0.33406000       0.01821200       0.26254000
    50  C          0.66594000       0.51821200       0.23746000
    51  C          0.66594000      -0.01821200       0.73746000
    52  C          0.33406000       0.48178800       0.76254000
    53  H          0.30690000       0.88640000       0.26100000
    54  H          0.69310000       0.38640000       0.23900000
    55  H          0.69310000       0.11360000       0.73900000
    56  H          0.30690000       0.61360000       0.76100000
    57  C          0.34706000       0.16271300       0.31424000
    58  C          0.65294000       0.66271300       0.18576000
    59  C          0.65294000       0.83728700       0.68576000
    60  C          0.34706000       0.33728700       0.81424000
    61  H          0.32820000       0.12840000       0.34890000
    62  H          0.67180000       0.62840000       0.15110000
    63  H          0.67180000       0.87160000       0.65110000
    64  H          0.32820000       0.37160000       0.84890000
    65  C          0.38626000       0.35301200       0.31704000
    66  C          0.61374000       0.85301200       0.18296000
    67  C          0.61374000       0.64698800       0.68296000
    68  C          0.38626000       0.14698800       0.81704000
    69  H          0.39280000       0.44810000       0.35290000
    70  H          0.60720000       0.94810000       0.14710000
    71  H          0.60720000       0.55190000       0.64710000
    72  H          0.39280000       0.05190000       0.85290000
    73  C          0.41616000       0.40961100       0.26864000
    74  C          0.58384000       0.90961100       0.23136000
    75  C          0.58384000       0.59038900       0.73136000
    76  C          0.41616000       0.09038900       0.76864000
    77  H          0.44440000       0.54000000       0.27120000
    78  H          0.55560000       0.04000000       0.22880000
    79  H          0.55560000       0.46000000       0.72880000
    80  H          0.44440000       0.96000000       0.77120000
    81  C          0.40356000       0.26951000       0.21634000
    82  C          0.59644000       0.76951000       0.28366000
    83  C          0.59644000       0.73049000       0.78366000
    84  C          0.40356000       0.23049000       0.71634000
    85  C          0.92183000       0.51251300       0.83866000
    86  C          0.07817000       0.01251300       0.66134000
    87  C          0.07817000       0.48748700       0.16134000
    88  C          0.92183000      -0.01251300       0.33866000
    89  H          0.90600000       0.38480000       0.85440000
    90  H          0.09400000       0.88480000       0.64560000
    91  H          0.09400000       0.61520000       0.14560000
    92  H          0.90600000       0.11520000       0.35440000
    93  C          0.86552000       0.65341400       0.79826000
    94  C          0.13448000       0.15341400       0.70174000
    95  C          0.13448000       0.34658600       0.20174000
    96  C          0.86552000       0.84658600       0.29826000
    97  H          0.80990000       0.62460000       0.78620000
    98  H          0.19010000       0.12460000       0.71380000
    99  H          0.19010000       0.37540000       0.21380000
   100  H          0.80990000       0.87540000       0.28620000
   101  C          0.89141000       0.84071500       0.77506000
   102  C          0.10859000       0.34071500       0.72494000
   103  C          0.10859000       0.15928500       0.22494000
   104  C          0.89141000       0.65928500       0.27506000
   105  H          0.85240000       0.93200000       0.74540000
   106  H          0.14760000       0.43200000       0.75460000
   107  H          0.14760000       0.06800000       0.25460000
   108  H          0.85240000       0.56800000       0.24540000
   109  C          0.96961000       0.89461500       0.79345000
   110  C          0.03039000       0.39461500       0.70655000
   111  C          0.03039000       0.10538500       0.20655000
   112  C          0.96961000       0.60538500       0.29345000
   113  H          0.98420000       0.02650000       0.77920000
   114  H          0.01580000       0.52650000       0.72080000
   115  H          0.01580000       0.97350000       0.22080000
   116  H          0.98420000       0.47350000       0.27920000
   117  C          0.22057000       0.50871700       0.93404000
   118  C          0.77943000       0.00871700       0.56596000
   119  C          0.77943000       0.49128300       0.06596000
   120  C          0.22057000      -0.00871700       0.43404000
   121  H          0.23530000       0.38060000       0.95930000
   122  H          0.76470000       0.88060000       0.54070000
   123  H          0.76470000       0.61940000       0.04070000
   124  H          0.23530000       0.11940000       0.45930000
   125  C          0.27678000       0.65081700       0.92933000
   126  C          0.72322000       0.15081700       0.57067000
   127  C          0.72322000       0.34918300       0.07067000
   128  C          0.27678000       0.84918300       0.42933000
   129  H          0.33200000       0.62060000       0.95210000
   130  H          0.66800000       0.12060000       0.54790000
   131  H          0.66800000       0.37940000       0.04790000
   132  H          0.33200000       0.87940000       0.45210000
   133  C          0.25411000       0.84520000       0.89092000
   134  C          0.74589000       0.34520000       0.60908000
   135  C          0.74589000       0.15480000       0.10908000
   136  C          0.25411000       0.65480000       0.39092000
   137  H          0.29420000       0.94070000       0.88880000
   138  H          0.70580000       0.44070000       0.61120000
   139  H          0.70580000       0.05930000       0.11120000
   140  H          0.29420000       0.55930000       0.38880000
   141  C          0.17731000       0.88881800       0.85864000
   142  C          0.82269000       0.38881800       0.64136000
   143  C          0.82269000       0.11118200       0.14136000
   144  C          0.17731000       0.61118200       0.35864000
   145  H          0.16320000       0.01530000       0.83270000
   146  H          0.83680000       0.51530000       0.66730000
   147  H          0.83680000      -0.01530000       0.16730000
   148  H          0.16320000       0.48470000       0.33270000
   149  C          0.30838000       0.77818800       0.12945000
   150  C          0.69162000       0.27818800       0.37055000
   151  C          0.69162000       0.22181200       0.87055000
   152  C          0.30838000       0.72181200       0.62945000
   153  H          0.32240000       0.66480000       0.16370000
   154  H          0.67760000       0.16480000       0.33630000
   155  H          0.67760000       0.33520000       0.83630000
   156  H          0.32240000       0.83520000       0.66370000
   157  H          0.31940000       0.72260000       0.09070000
   158  H          0.68060000       0.22260000       0.40930000
   159  H          0.68060000       0.27740000       0.90930000
   160  H          0.31940000       0.77740000       0.59070000
   161  C          0.22027000       0.82888800       0.10855000
   162  C          0.77973000       0.32888800       0.39145000
   163  C          0.77973000       0.17111200       0.89145000
   164  C          0.22027000       0.67111200       0.60855000
   165  H          0.20790000       0.86190000       0.14860000
   166  H          0.79210000       0.36190000       0.35140000
   167  H          0.79210000       0.13810000       0.85140000
   168  H          0.20790000       0.63810000       0.64860000
   169  H          0.18890000       0.70040000       0.08750000
   170  H          0.81110000       0.20040000       0.41250000
   171  H          0.81110000       0.29960000       0.91250000
   172  H          0.18890000       0.79960000       0.58750000
   173  C          0.19267000       0.01901200       0.05954000
   174  C          0.80733000       0.51901200       0.44046000
   175  C          0.80733000      -0.01901200       0.94046000
   176  C          0.19267000       0.48098800       0.55954000
   177  H          0.22450000       0.14720000       0.07990000
   178  H          0.77550000       0.64720000       0.42010000
   179  H          0.77550000       0.85280000       0.92010000
   180  H          0.22450000       0.35280000       0.57990000
   181  H          0.20310000      -0.01520000       0.01870000
   182  H          0.79690000       0.48480000       0.48130000
   183  H          0.79690000       0.01520000       0.98130000
   184  H          0.20310000       0.51520000       0.51870000
   185  C          0.10406000       0.06931300       0.04114000
   186  C          0.89594000       0.56931300       0.45886000
   187  C          0.89594000       0.93068700       0.95886000
   188  C          0.10406000       0.43068700       0.54114000
   189  H          0.09210000       0.08110000       0.08230000
   190  H          0.90790000       0.58110000       0.41770000
   191  H          0.90790000       0.91890000       0.91770000
   192  H          0.09210000       0.41890000       0.58230000
   193  H          0.07200000       0.94910000       0.01480000
   194  H          0.92800000       0.44910000       0.48520000
   195  H          0.92800000       0.05090000       0.98520000
   196  H          0.07200000       0.55090000       0.51480000
   197  C          0.07846000       0.27571200       0.00134000
   198  C          0.92154000       0.77571200       0.49866000
   199  C          0.92154000       0.72428800      -0.00134000
   200  C          0.07846000       0.22428800       0.50134000
   201  H          0.11760000       0.39000000       0.02260000
   202  H          0.88240000       0.89000000       0.47740000
   203  H          0.88240000       0.61000000       0.97740000
   204  H          0.11760000       0.11000000       0.52260000
   205  H          0.02550000       0.32100000       0.00160000
   206  H          0.97450000       0.82100000       0.49840000
   207  H          0.97450000       0.67900000      -0.00160000
   208  H          0.02550000       0.17900000       0.50160000
   209  C          0.07306000       0.24691100       0.92956000
   210  C          0.92694000       0.74691100       0.57044000
   211  C          0.92694000       0.75308900       0.07044000
   212  C          0.07306000       0.25308900       0.42956000
   213  H          0.11970000       0.16260000       0.92940000
   214  H          0.88030000       0.66260000       0.57060000
   215  H          0.88030000       0.83740000       0.07060000
   216  H          0.11970000       0.33740000       0.42940000
   217  H          0.02390000       0.16450000       0.90500000
   218  H          0.97610000       0.66450000       0.59500000
   219  H          0.97610000       0.83550000       0.09500000
   220  H          0.02390000       0.33550000       0.40500000
   221  N          0.07104000       0.44627000       0.89617000
   222  N          0.92896000       0.94627000       0.60383000
   223  N          0.92896000       0.55373000       0.10383000
   224  N          0.07104000       0.05373000       0.39617000
   225  C          0.00314000       0.56431000       0.85577000
   226  C         -0.00314000       0.06431000       0.64423000
   227  C         -0.00314000       0.43569000       0.14423000
   228  C          0.00314000       0.93569000       0.35577000
   229  C          0.03085000       0.75348000       0.83467000
   230  C          0.96915000       0.25348000       0.66533000
   231  C          0.96915000       0.24652000       0.16533000
   232  C          0.03085000       0.74652000       0.33467000
   233  C          0.11595000       0.75228000       0.86207000
   234  C          0.88405000       0.25228000       0.63793000
   235  C          0.88405000       0.24772000       0.13793000
   236  C          0.11595000       0.74772000       0.36207000
   237  C          0.14084000       0.56231000       0.90007000
   238  C          0.85916000       0.06231000       0.59993000
   239  C          0.85916000       0.43769000       0.09993000
   240  C          0.14084000       0.93769000       0.40007000
