data_XUVLIK01
_symmetry_space_group_name_H-M    'P1'
_symmetry_Int_Tables_number       1
loop_
_symmetry_equiv_pos_site_id
_symmetry_equiv_pos_as_xyz
1 x,y,z
_cell_length_a                   5.8442
_cell_length_b                   12.0015
_cell_length_c                   32.44413
_cell_angle_alpha                90.0
_cell_angle_beta                 90.0
_cell_angle_gamma                90.0
loop_
_atom_site_label
_atom_site_type_symbol
_atom_site_fract_x
_atom_site_fract_y
_atom_site_fract_z
     1  C          0.33565000       0.60723000       0.05631900
     2  C          0.16435000       0.39277000       0.55631900
     3  C          0.66435000       0.10723000       0.44368100
     4  C          0.83565000       0.89277000       0.94368100
     5  C          0.35446000       0.68453000       0.08787900
     6  C          0.14554000       0.31547000       0.58787900
     7  C          0.64554000       0.18453000       0.41212100
     8  C          0.85446000       0.81547000       0.91212100
     9  H          0.47070000       0.68020000       0.10740000
    10  H          0.02930000       0.31980000       0.60740000
    11  H          0.52930000       0.18020000       0.39260000
    12  H          0.97070000       0.81980000       0.89260000
    13  C          0.19367000       0.76763000       0.08900100
    14  C          0.30633000       0.23237000       0.58900100
    15  C          0.80633000       0.26763000       0.41099900
    16  C          0.69367000       0.73237000       0.91099900
    17  H          0.20240000       0.82110000       0.10970000
    18  H          0.29760000       0.17890000       0.60970000
    19  H          0.79760000       0.32110000       0.39030000
    20  H          0.70240000       0.67890000       0.89030000
    21  C          0.01766000       0.77443000       0.06023120
    22  C          0.48234000       0.22557000       0.56023120
    23  C         -0.01766000       0.27443000       0.43976880
    24  C          0.51766000       0.72557000       0.93976880
    25  H          0.91140000       0.83200000       0.06190000
    26  H          0.58860000       0.16800000       0.56190000
    27  H          0.08860000       0.33200000       0.43810000
    28  H          0.41140000       0.66800000       0.93810000
    29  C          0.00076000       0.69653000       0.02946110
    30  C          0.49924000       0.30347000       0.52946110
    31  C         -0.00076000       0.19653000       0.47053890
    32  C          0.50076000       0.80347000       0.97053890
    33  H          0.88270000       0.70090000       0.01030000
    34  H          0.61730000       0.29910000       0.51030000
    35  H          0.11730000       0.20090000       0.48970000
    36  H          0.38270000       0.79910000       0.98970000
    37  C          0.15945000       0.61143000       0.02702900
    38  C          0.34055000       0.38857000       0.52702900
    39  C          0.84055000       0.11143000       0.47297100
    40  C          0.65945000       0.88857000       0.97297100
    41  C          0.19745000       0.52033000      -0.00090900
    42  C          0.30255000       0.47967000       0.49909100
    43  C          0.80255000       0.02033000       0.50090900
    44  C          0.69745000       0.97967000       0.00090900
    45  C          0.08756000       0.48313000       0.96343890
    46  C          0.41244000       0.51687000       0.46343890
    47  C          0.91244000       0.98313000       0.53656110
    48  C          0.58756000       0.01687000       0.03656110
    49  H          0.95640000       0.51870000       0.95390000
    50  H          0.54360000       0.48130000       0.45390000
    51  H          0.04360000       0.01870000       0.54610000
    52  H          0.45640000       0.98130000       0.04610000
    53  C          0.17458000       0.39454000       0.94284890
    54  C          0.32542000       0.60546000       0.44284890
    55  C          0.82542000       0.89454000       0.55715110
    56  C          0.67458000       0.10546000       0.05715110
    57  H          0.10120000       0.36900000       0.91920000
    58  H          0.39880000       0.63100000       0.41920000
    59  H          0.89880000       0.86900000       0.58080000
    60  H          0.60120000       0.13100000       0.08080000
    61  C          0.37027000       0.34123000       0.95636890
    62  C          0.12973000       0.65877000       0.45636890
    63  C          0.62973000       0.84123000       0.54363110
    64  C          0.87027000       0.15877000       0.04363110
    65  H          0.42730000       0.28150000       0.94130000
    66  H          0.07270000       0.71850000       0.44130000
    67  H          0.57270000       0.78150000       0.55870000
    68  H          0.92730000       0.21850000       0.05870000
    69  C          0.48326000       0.37443000       0.99161900
    70  C          0.01674000       0.62557000       0.49161900
    71  C          0.51674000       0.87443000       0.50838100
    72  C         -0.01674000       0.12557000       0.00838100
    73  H          0.61320000       0.33740000       0.00090000
    74  H          0.88680000       0.66260000       0.50090000
    75  H          0.38680000       0.83740000       0.49910000
    76  H          0.11320000       0.16260000      -0.00090000
    77  C          0.39525000       0.46453000       0.01237900
    78  C          0.10475000       0.53547000       0.51237900
    79  C          0.60475000       0.96453000       0.48762100
    80  C          0.89525000       0.03547000       0.98762100
    81  C          0.67965000       0.48822000       0.07058800
    82  C          0.82035000       0.51178000       0.57058800
    83  C          0.32035000       0.98822000       0.42941200
    84  C          0.17965000       0.01178000       0.92941200
    85  H          0.75180000       0.55590000       0.08050000
    86  H          0.74820000       0.44410000       0.58050000
    87  H          0.24820000       0.05590000       0.41950000
    88  H          0.25180000       0.94410000       0.91950000
    89  H          0.78660000       0.45160000       0.05220000
    90  H          0.71340000       0.54840000       0.55220000
    91  H          0.21340000       0.95160000       0.44780000
    92  H          0.28660000       0.04840000       0.94780000
    93  C          0.63335000       0.41232000       0.10702700
    94  C          0.86665000       0.58768000       0.60702700
    95  C          0.36665000       0.91232000       0.39297300
    96  C          0.13335000       0.08768000       0.89297300
    97  H          0.59260000       0.33880000       0.09700000
    98  H          0.90740000       0.66120000       0.59700000
    99  H          0.40740000       0.83880000       0.40300000
   100  H          0.09260000       0.16120000       0.90300000
   101  H          0.50430000       0.44110000       0.12250000
   102  H         -0.00430000       0.55890000       0.62250000
   103  H          0.49570000       0.94110000       0.37750000
   104  H          0.00430000       0.05890000       0.87750000
   105  C          0.83955000       0.40282000       0.13543800
   106  C          0.66045000       0.59718000       0.63543800
   107  C          0.16045000       0.90282000       0.36456200
   108  C          0.33955000       0.09718000       0.86456200
   109  H          0.81380000       0.34270000       0.15490000
   110  H          0.68620000       0.65730000       0.65490000
   111  H          0.18620000       0.84270000       0.34510000
   112  H          0.31380000       0.15730000       0.84510000
   113  H          0.97350000       0.38410000       0.11920000
   114  H          0.52650000       0.61590000       0.61920000
   115  H          0.02650000       0.88410000       0.38080000
   116  H          0.47350000       0.11590000       0.88080000
   117  C          0.88535000       0.50952000       0.15901800
   118  C          0.61465000       0.49048000       0.65901800
   119  C          0.11465000       0.00952000       0.34098200
   120  C          0.38535000      -0.00952000       0.84098200
   121  H          0.91720000       0.56830000       0.13930000
   122  H          0.58280000       0.43170000       0.63930000
   123  H          0.08280000       0.06830000       0.36070000
   124  H          0.41720000       0.93170000       0.86070000
   125  H          0.74710000       0.53000000       0.17370000
   126  H          0.75290000       0.47000000       0.67370000
   127  H          0.25290000       0.03000000       0.32630000
   128  H          0.24710000       0.97000000       0.82630000
   129  C          0.08005000       0.50452000       0.18948800
   130  C          0.41995000       0.49548000       0.68948800
   131  C          0.91995000       0.00452000       0.31051200
   132  C          0.58005000      -0.00452000       0.81051200
   133  H          0.21310000       0.47290000       0.17600000
   134  H          0.28690000       0.52710000       0.67600000
   135  H          0.78690000       0.97290000       0.32400000
   136  H          0.71310000       0.02710000       0.82400000
   137  H          0.03770000       0.45530000       0.21200000
   138  H          0.46230000       0.54470000       0.71200000
   139  H          0.96230000       0.95530000       0.28800000
   140  H          0.53770000       0.04470000       0.78800000
   141  C          0.14305000       0.61722000       0.20695900
   142  C          0.35695000       0.38278000       0.70695900
   143  C          0.85695000       0.11722000       0.29304100
   144  C          0.64305000       0.88278000       0.79304100
   145  H          0.28250000       0.60970000       0.22290000
   146  H          0.21750000       0.39030000       0.72290000
   147  H          0.71750000       0.10970000       0.27710000
   148  H          0.78250000       0.89030000       0.77710000
   149  H          0.17420000       0.66770000       0.18430000
   150  H          0.32580000       0.33230000       0.68430000
   151  H          0.82580000       0.16770000       0.31570000
   152  H          0.67420000       0.83230000       0.81570000
   153  C          0.94125000       0.64332000       0.27467800
   154  C          0.55875000       0.35668000       0.77467800
   155  C          0.05875000       0.14332000       0.22532200
   156  C          0.44125000       0.85668000       0.72532200
   157  C          0.07735000       0.57842000       0.29992900
   158  C          0.42265000       0.42158000       0.79992900
   159  C          0.92265000       0.07842000       0.20007100
   160  C          0.57735000       0.92158000       0.70007100
   161  H          0.20660000       0.54230000       0.28980000
   162  H          0.29340000       0.45770000       0.78980000
   163  H          0.79340000       0.04230000       0.21020000
   164  H          0.70660000       0.95770000       0.71020000
   165  C          0.01336000       0.56953000       0.34058100
   166  C          0.48664000       0.43047000       0.84058100
   167  C         -0.01336000       0.06953000       0.15941900
   168  C          0.51336000       0.93047000       0.65941900
   169  H          0.10250000       0.52700000       0.35840000
   170  H          0.39750000       0.47300000       0.85840000
   171  H          0.89750000       0.02700000       0.14160000
   172  H          0.60250000       0.97300000       0.64160000
   173  C          0.81996000       0.62213000       0.35588900
   174  C          0.68004000       0.37787000       0.85588900
   175  C          0.18004000       0.12213000       0.14411100
   176  C          0.31996000       0.87787000       0.64411100
   177  H          0.78110000       0.61410000       0.38350000
   178  H          0.71890000       0.38590000       0.88350000
   179  H          0.21890000       0.11410000       0.11650000
   180  H          0.28110000       0.88590000       0.61650000
   181  C          0.68576000       0.68573000       0.33052900
   182  C          0.81424000       0.31427000       0.83052900
   183  C          0.31424000       0.18573000       0.16947100
   184  C          0.18576000       0.81427000       0.66947100
   185  H          0.55500000       0.72020000       0.34070000
   186  H          0.94500000       0.27980000       0.84070000
   187  H          0.44500000       0.22020000       0.15930000
   188  H          0.05500000       0.77980000       0.65930000
   189  C          0.74645000       0.69812000       0.28955800
   190  C          0.75355000       0.30188000       0.78955800
   191  C          0.25355000       0.19812000       0.21044200
   192  C          0.24645000       0.80188000       0.71044200
   193  C          0.65415000       0.75862000       0.25537900
   194  C          0.84585000       0.24138000       0.75537900
   195  C          0.34585000       0.25862000       0.24462100
   196  C          0.15415000       0.74138000       0.74462100
   197  C          0.46775000       0.83042000       0.25095120
   198  C          0.03225000       0.16958000       0.75095120
   199  C          0.53225000       0.33042000       0.24904880
   200  C          0.96775000       0.66958000       0.74904880
   201  H          0.37400000       0.84650000       0.27330000
   202  H          0.12600000       0.15350000       0.77330000
   203  H          0.62600000       0.34650000       0.22670000
   204  H          0.87400000       0.65350000       0.72670000
   205  C          0.42476000       0.87683000       0.21310130
   206  C          0.07524000       0.12317000       0.71310130
   207  C          0.57524000       0.37683000       0.28689870
   208  C          0.92476000       0.62317000       0.78689870
   209  H          0.30010000       0.92420000       0.20990000
   210  H          0.19990000       0.07580000       0.70990000
   211  H          0.69990000       0.42420000       0.29010000
   212  H          0.80010000       0.57580000       0.79010000
   213  C          0.56376000       0.85413000       0.17967120
   214  C          0.93624000       0.14587000       0.67967120
   215  C          0.43624000       0.35413000       0.32032880
   216  C          0.06376000       0.64587000       0.82032880
   217  H          0.53120000       0.88690000       0.15440000
   218  H          0.96880000       0.11310000       0.65440000
   219  H          0.46880000       0.38690000       0.34560000
   220  H          0.03120000       0.61310000       0.84560000
   221  C          0.74875000       0.78422000       0.18302900
   222  C          0.75125000       0.21578000       0.68302900
   223  C          0.25125000       0.28422000       0.31697100
   224  C          0.24875000       0.71578000       0.81697100
   225  H          0.84120000       0.76900000       0.16040000
   226  H          0.65880000       0.23100000       0.66040000
   227  H          0.15880000       0.26900000       0.33960000
   228  H          0.34120000       0.73100000       0.83960000
   229  C          0.79345000       0.73702000       0.22118800
   230  C          0.70655000       0.26298000       0.72118800
   231  C          0.20655000       0.23702000       0.27881200
   232  C          0.29345000       0.76298000       0.77881200
   233  N          0.47574000       0.51792000       0.04745700
   234  N          0.02426000       0.48208000       0.54745700
   235  N          0.52426000       0.01792000       0.45254300
   236  N          0.97574000       0.98208000       0.95254300
   237  N          0.96664000       0.66599180       0.23308600
   238  N          0.53336000       0.33400820       0.73308600
   239  N          0.03336000       0.16599180       0.26691400
   240  N          0.46664000       0.83400820       0.76691400
