data_XYANAC03
_symmetry_space_group_name_H-M    'P1'
_symmetry_Int_Tables_number       1
loop_
_symmetry_equiv_pos_site_id
_symmetry_equiv_pos_as_xyz
1 x,y,z
_cell_length_a                   7.7232
_cell_length_b                   7.93401
_cell_length_c                   11.23201
_cell_angle_alpha                83.5901
_cell_angle_beta                 80.9401
_cell_angle_gamma                67.5101
loop_
_atom_site_label
_atom_site_type_symbol
_atom_site_fract_x
_atom_site_fract_y
_atom_site_fract_z
     1  O          0.29989160       0.57699160       0.08597110
     2  O          0.70010840       0.42300840       0.91402890
     3  O          0.45891180       0.74251190      -0.01175120
     4  O          0.54108820       0.25748810       0.01175120
     5  N          0.97999810       0.74729190       0.22864130
     6  N          0.02000190       0.25270810       0.77135870
     7  H          0.06010000       0.64530000       0.20210000
     8  H          0.93990000       0.35470000       0.79790000
     9  C          0.17452000       0.89812000       0.10691140
    10  C          0.82548000       0.10188000       0.89308860
    11  C          0.01422000       0.90222000       0.18930150
    12  C          0.98578000       0.09778000       0.81069850
    13  C          0.88878000       0.07212000       0.22953170
    14  C          0.11122000       0.92788000       0.77046830
    15  H          0.78310000       0.07810000       0.28420000
    16  H          0.21690000       0.92190000       0.71580000
    17  C          0.91837000       0.22953000       0.19034180
    18  C          0.08163000       0.77047000       0.80965820
    19  H          0.83220000       0.34040000       0.21840000
    20  H          0.16780000       0.65960000       0.78160000
    21  C          0.07463000       0.22643000       0.10942180
    22  C          0.92537000       0.77357000       0.89057820
    23  H          0.09370000       0.33400000       0.08290000
    24  H          0.90630000       0.66600000       0.91710000
    25  C          0.19982000       0.06222000       0.06947160
    26  C          0.80018000       0.93778000       0.93052840
    27  H          0.30540000       0.05930000       0.01560000
    28  H          0.69460000       0.94070000       0.98440000
    29  C          0.31212000       0.72802000       0.06067150
    30  C          0.68788000       0.27198000       0.93932850
    31  C          0.81978000       0.74282000       0.31120160
    32  C          0.18022000       0.25718000       0.68879840
    33  C          0.81888000       0.74692000       0.43458160
    34  C          0.18112000       0.25308000       0.56541840
    35  C          0.66147000       0.73622000       0.51275160
    36  C          0.33853000       0.26378000       0.48724840
    37  C          0.51407000       0.72263000       0.46417190
    38  C          0.48593000       0.27737000       0.53582810
    39  H          0.40970000       0.71610000       0.51560000
    40  H          0.59030000       0.28390000       0.48440000
    41  C          0.51757000       0.71853000       0.34252000
    42  C          0.48243000       0.28147000       0.65748000
    43  H          0.41690000       0.70820000       0.31210000
    44  H          0.58310000       0.29180000       0.68790000
    45  C          0.67007000       0.72953000       0.26484170
    46  C          0.32993000       0.27047000       0.73515830
    47  H          0.67260000       0.72810000       0.18190000
    48  H          0.32740000       0.27190000       0.81810000
    49  C          0.98187000       0.75953000       0.48507190
    50  C          0.01813000       0.24047000       0.51492810
    51  H          0.07220000       0.77510000       0.42000000
    52  H          0.92780000       0.22490000       0.58000000
    53  H          0.04060000       0.64940000       0.53250000
    54  H          0.95940000       0.35060000       0.46750000
    55  H          0.93700000       0.86210000       0.53500000
    56  H          0.06300000       0.13790000       0.46500000
    57  C          0.65367000       0.73663000       0.64719180
    58  C          0.34633000       0.26337000       0.35280820
    59  H          0.54800000       0.70750000       0.68640000
    60  H          0.45200000       0.29250000       0.31360000
    61  H          0.64000000       0.85530000       0.66850000
    62  H          0.36000000       0.14470000       0.33150000
    63  H          0.76830000       0.64710000       0.67260000
    64  H          0.23170000       0.35290000       0.32740000
    65  H          0.53840000       0.62740000       0.95680000
    66  H          0.46160000       0.37260000       0.04320000
