data_XYANAC
_symmetry_space_group_name_H-M    'P1'
_symmetry_Int_Tables_number       1
loop_
_symmetry_equiv_pos_site_id
_symmetry_equiv_pos_as_xyz
1 x,y,z
_cell_length_a                   14.556
_cell_length_b                   6.811
_cell_length_c                   7.657
_cell_angle_alpha                119.57
_cell_angle_beta                 103.93
_cell_angle_gamma                91.3
loop_
_atom_site_label
_atom_site_type_symbol
_atom_site_fract_x
_atom_site_fract_y
_atom_site_fract_z
     1  O          0.08320000       0.34660000      -0.01890000
     2  O          0.91680000       0.65340000       0.01890000
     3  O         -0.00380000       0.42980000       0.20280000
     4  O          0.00380000       0.57020000       0.79720000
     5  N          0.20270000       0.05470000       0.95430000
     6  N          0.79730000       0.94530000       0.04570000
     7  C          0.17560000       0.04960000       0.11080000
     8  C          0.82440000       0.95040000       0.88920000
     9  C          0.21650000       0.91870000       0.19640000
    10  C          0.78350000       0.08130000       0.80360000
    11  C          0.18880000       0.91540000       0.35420000
    12  C          0.81120000       0.08460000       0.64580000
    13  C          0.11950000       0.03980000       0.43410000
    14  C          0.88050000       0.96020000       0.56590000
    15  C          0.07900000       0.17000000       0.35420000
    16  C          0.92100000       0.83000000       0.64580000
    17  C          0.10550000       0.17850000       0.19400000
    18  C          0.89450000       0.82150000       0.80600000
    19  C          0.06170000       0.32270000       0.11640000
    20  C          0.93830000       0.67730000       0.88360000
    21  C          0.27020000       0.93520000       0.85480000
    22  C          0.72980000       0.06480000       0.14520000
    23  C          0.25300000       0.69790000       0.73940000
    24  C          0.74700000       0.30210000       0.26060000
    25  C          0.31610000       0.58310000       0.63230000
    26  C          0.68390000       0.41690000       0.36770000
    27  C          0.39520000       0.70520000       0.63980000
    28  C          0.60480000       0.29480000       0.36020000
    29  C          0.41430000       0.94180000       0.75530000
    30  C          0.58570000       0.05820000       0.24470000
    31  C          0.35070000       0.06000000       0.86540000
    32  C          0.64930000       0.94000000       0.13460000
    33  C          0.36940000       0.31620000      -0.00620000
    34  C          0.63060000       0.68380000       0.00620000
    35  C          0.50250000       0.07010000       0.76280000
    36  C          0.49750000       0.92990000       0.23720000
    37  H          0.18260000       0.16960000       0.93380000
    38  H          0.81740000       0.83040000       0.06620000
    39  H          0.19680000       0.61800000       0.73680000
    40  H          0.80320000       0.38200000       0.26320000
    41  H          0.30610000       0.42280000       0.56120000
    42  H          0.69390000       0.57720000       0.43880000
    43  H          0.43740000       0.62880000       0.56690000
    44  H          0.56260000       0.37120000       0.43310000
    45  H          0.54650000       0.17250000       0.90840000
    46  H          0.45350000       0.82750000       0.09160000
    47  H          0.48440000       0.14860000       0.69350000
    48  H          0.51560000       0.85140000       0.30650000
    49  H          0.54270000       0.93540000       0.67370000
    50  H          0.45730000       0.06460000       0.32630000
    51  H          0.44240000       0.36920000       0.08610000
    52  H          0.55760000       0.63080000       0.91390000
    53  H          0.34270000       0.35680000       0.10210000
    54  H          0.65730000       0.64320000       0.89790000
    55  H          0.35070000       0.37750000       0.91520000
    56  H          0.64930000       0.62250000       0.08480000
    57  H          0.26270000       0.83000000       0.13960000
    58  H          0.73730000       0.17000000       0.86040000
    59  H          0.21610000       0.81450000       0.40050000
    60  H          0.78390000       0.18550000       0.59950000
    61  H          0.10170000       0.03840000       0.55320000
    62  H          0.89830000       0.96160000       0.44680000
    63  H          0.03070000       0.24870000       0.40200000
    64  H          0.96930000       0.75130000       0.59800000
    65  H          0.97110000       0.51830000       0.13930000
    66  H          0.02890000       0.48170000       0.86070000
