data_XYANAC07
_symmetry_space_group_name_H-M    'P1'
_symmetry_Int_Tables_number       1
loop_
_symmetry_equiv_pos_site_id
_symmetry_equiv_pos_as_xyz
1 x,y,z
_cell_length_a                   7.790015
_cell_length_b                   9.189018
_cell_length_c                   9.412019
_cell_angle_alpha                106.7511
_cell_angle_beta                 92.28712
_cell_angle_gamma                101.37711
loop_
_atom_site_label
_atom_site_type_symbol
_atom_site_fract_x
_atom_site_fract_y
_atom_site_fract_z
     1  C          0.53130000       0.16920000       0.91420000
     2  C          0.46870000       0.83080000       0.08580000
     3  C          0.04130000       0.31630000       0.66820000
     4  C          0.95870000       0.68370000       0.33180000
     5  C          0.82560000       0.28930000       0.42830000
     6  C          0.17440000       0.71070000       0.57170000
     7  O          0.41111900       0.05981600       0.87761500
     8  O          0.58888100       0.94018400       0.12238500
     9  O          0.64720000       0.19151600       0.03181600
    10  O          0.35280000       0.80848400       0.96818400
    11  N          0.31420000       0.18920000       0.67471900
    12  N          0.68580000       0.81080000       0.32528100
    13  C          0.45030000       0.31420000       0.74420000
    14  C          0.54970000       0.68580000       0.25580000
    15  C          0.48730000       0.43811900       0.68620000
    16  C          0.51270000       0.56188100       0.31380000
    17  C          0.62520000       0.56420000       0.75320000
    18  C          0.37480000       0.43580000       0.24680000
    19  C          0.73430000       0.55620000       0.87020000
    20  C          0.26570000       0.44380000       0.12980000
    21  C          0.70330000       0.42901900       0.92420000
    22  C          0.29670000       0.57098100       0.07580000
    23  C          0.56120000       0.30520000       0.86020000
    24  C          0.43880000       0.69480000       0.13980000
    25  C          0.22030000       0.16220000       0.52751900
    26  C          0.77970000       0.83780000       0.47248100
    27  C          0.25730000       0.06930000       0.39320000
    28  C          0.74270000       0.93070000       0.60680000
    29  C          0.15530000       0.05430000       0.26221900
    30  C          0.84470000       0.94570000       0.73778100
    31  C          0.00830000       0.11920000       0.26941900
    32  C         -0.00830000       0.88080000       0.73058100
    33  C          0.97370000       0.21420000       0.40420000
    34  C          0.02630000       0.78580000       0.59580000
    35  C          0.07430000       0.22930000       0.53481800
    36  C          0.92570000       0.77070000       0.46518200
    37  H          0.41570000       0.43910000       0.60520000
    38  H          0.58430000       0.56090000       0.39480000
    39  H          0.64940000       0.64830000       0.71570000
    40  H          0.35060000       0.35170000       0.28430000
    41  H          0.82850000       0.63990000       0.91370000
    42  H          0.17150000       0.36010000       0.08630000
    43  H          0.77410000       0.42770000       0.00520000
    44  H          0.22590000       0.57230000      -0.00520000
    45  H          0.35190000       0.02130000       0.38840000
    46  H          0.64810000       0.97870000       0.61160000
    47  H          0.17810000      -0.00690000       0.16980000
    48  H          0.82190000       0.00690000       0.83020000
    49  H          0.93780000       0.10540000       0.18200000
    50  H          0.06220000       0.89460000       0.81800000
    51  H          0.13080000       0.31730000       0.74760000
    52  H          0.86920000       0.68270000       0.25240000
    53  H          0.92130000       0.26790000       0.68860000
    54  H          0.07870000       0.73210000       0.31140000
    55  H          0.04320000       0.42550000       0.66820000
    56  H          0.95680000       0.57450000       0.33180000
    57  H          0.82080000       0.35070000       0.53400000
    58  H          0.17920000       0.64930000       0.46600000
    59  H          0.71680000       0.20540000       0.39290000
    60  H          0.28320000       0.79460000       0.60710000
    61  H          0.83530000       0.36000000       0.36410000
    62  H          0.16470000       0.64000000       0.63590000
    63  H          0.61240000       0.13240000       0.08630000
    64  H          0.38760000       0.86760000       0.91370000
    65  H          0.28980000       0.12110000       0.71590000
    66  H          0.71020000       0.87890000       0.28410000
