data_YAQNAG
_symmetry_space_group_name_H-M    'P1'
_symmetry_Int_Tables_number       1
loop_
_symmetry_equiv_pos_site_id
_symmetry_equiv_pos_as_xyz
1 x,y,z
_cell_length_a                   23.1248
_cell_length_b                   7.5422
_cell_length_c                   9.2993
_cell_angle_alpha                90.0
_cell_angle_beta                 99.7517
_cell_angle_gamma                90.0
loop_
_atom_site_label
_atom_site_type_symbol
_atom_site_fract_x
_atom_site_fract_y
_atom_site_fract_z
     1  H          0.09251300       0.69260000       0.35330000
     2  H          0.90748700       0.19260000       0.14670000
     3  H          0.90748700       0.30740000       0.64670000
     4  H          0.09251300       0.80740000       0.85330000
     5  H          0.12101100       0.45970000       0.59330000
     6  H          0.87898900       0.95970000       0.90670000
     7  H          0.87898900       0.54030000       0.40670000
     8  H          0.12101100       0.04030000       0.09330000
     9  H          0.15501200       0.98060000       0.38630000
    10  H          0.84498800       0.48060000       0.11370000
    11  H          0.84498800       0.01940000       0.61370000
    12  H          0.15501200       0.51940000       0.88630000
    13  H          0.42020000       0.88860000       0.73240000
    14  H          0.57980000       0.38860000       0.76760000
    15  H          0.57980000       0.11140000       0.26760000
    16  H          0.42020000       0.61140000       0.23240000
    17  H          0.15581300       0.60560000       0.38630000
    18  H          0.84418700       0.10560000       0.11370000
    19  H          0.84418700       0.39440000       0.61370000
    20  H          0.15581300       0.89440000       0.88630000
    21  H          0.29781400       0.71250000       0.68330000
    22  H          0.70218600       0.21250000       0.81670000
    23  H          0.70218600       0.28750000       0.31670000
    24  H          0.29781400       0.78750000       0.18330000
    25  H          0.35691400       0.59750000       0.70430000
    26  H          0.64308600       0.09750000       0.79570000
    27  H          0.64308600       0.40250000       0.29570000
    28  H          0.35691400       0.90250000       0.20430000
    29  H          0.06221300       0.55760000       0.54930000
    30  H          0.93778700       0.05760000       0.95070000
    31  H          0.93778700       0.44240000       0.45070000
    32  H          0.06221300       0.94240000       0.04930000
    33  H          0.23791300       0.41440000       0.64930000
    34  H          0.76208700       0.91440000       0.85070000
    35  H          0.76208700       0.58560000       0.35070000
    36  H          0.23791300       0.08560000       0.14930000
    37  H          0.21121400       0.89460000       0.41530000
    38  H          0.78878600       0.39460000       0.08470000
    39  H          0.78878600       0.10540000       0.58470000
    40  H          0.21121400       0.60540000       0.91530000
    41  H          0.29641500       0.31950000       0.68140000
    42  H          0.70358500       0.81950000       0.81860000
    43  H          0.70358500       0.68050000       0.31860000
    44  H          0.29641500       0.18050000       0.18140000
    45  H          0.23401200       0.03940000       0.64630000
    46  H          0.76598800       0.53940000       0.85370000
    47  H          0.76598800       0.96060000       0.35370000
    48  H          0.23401200       0.46060000       0.14630000
    49  H          0.27001400       0.17040000       0.44730000
    50  H          0.72998600       0.67040000       0.05270000
    51  H          0.72998600       0.82960000       0.55270000
    52  H          0.27001400       0.32960000       0.94730000
    53  H          0.17571200       0.14240000       0.61830000
    54  H          0.82428800       0.64240000       0.88170000
    55  H          0.82428800       0.85760000       0.38170000
    56  H          0.17571200       0.35760000       0.11830000
    57  H          0.17591200       0.75560000       0.61430000
    58  H          0.82408800       0.25560000       0.88570000
    59  H          0.82408800       0.24440000       0.38570000
    60  H          0.17591200       0.74440000       0.11430000
    61  H          0.21351200       0.27240000       0.42330000
    62  H          0.78648800       0.77240000       0.07670000
    63  H          0.78648800       0.72760000       0.57670000
    64  H          0.21351200       0.22760000       0.92330000
    65  C          0.09439190       0.51105000       0.50763000
    66  C          0.90560810       0.01105000      -0.00763000
    67  C          0.90560810       0.48895000       0.49237000
    68  C          0.09439190      -0.01105000       0.00763000
    69  C          0.12424190       0.65285000       0.43293000
    70  C          0.87575810       0.15285000       0.06707000
    71  C          0.87575810       0.34715000       0.56707000
    72  C          0.12424190       0.84715000       0.93293000
    73  C          0.14882000       0.79975000       0.53404000
    74  C          0.85118000       0.29975000       0.96596000
    75  C          0.85118000       0.20025000       0.46596000
    76  C          0.14882000       0.70025000       0.03404000
    77  C          0.18202000       0.93875000       0.46474000
    78  C          0.81798000       0.43875000       0.03526000
    79  C          0.81798000       0.06125000       0.53526000
    80  C          0.18202000       0.56125000       0.96474000
    81  C          0.20742000       0.08555000       0.56654000
    82  C          0.79258000       0.58555000       0.93346000
    83  C          0.79258000       0.91445000       0.43346000
    84  C          0.20742000       0.41445000       0.06654000
    85  C          0.24062000       0.22375000       0.49634000
    86  C          0.75938000       0.72375000       0.00366000
    87  C          0.75938000       0.77625000       0.50366000
    88  C          0.24062000       0.27625000      -0.00366000
    89  C          0.26862000       0.36645000       0.59754000
    90  C          0.73138000       0.86645000       0.90246000
    91  C          0.73138000       0.63355000       0.40246000
    92  C          0.26862000       0.13355000       0.09754000
    93  C          0.30120160       0.50525000       0.52664000
    94  C          0.69879840       0.00525000       0.97336000
    95  C          0.69879840       0.49475000       0.47336000
    96  C          0.30120160      -0.00525000       0.02664000
    97  H          0.33140000       0.44710000       0.48290000
    98  H          0.66860000       0.94710000       0.01710000
    99  H          0.66860000       0.55290000       0.51710000
   100  H          0.33140000       0.05290000       0.98290000
   101  H          0.27410000       0.56070000       0.44860000
   102  H          0.72590000       0.06070000       0.05140000
   103  H          0.72590000       0.43930000       0.55140000
   104  H          0.27410000       0.93930000       0.94860000
   105  C          0.32952000       0.64765000       0.62805000
   106  C          0.67048000       0.14765000       0.87195000
   107  C          0.67048000       0.35235000       0.37195000
   108  C          0.32952000       0.85235000       0.12805000
   109  C          0.36202190       0.78615000       0.55904000
   110  C          0.63797810       0.28615000       0.94096000
   111  C          0.63797810       0.21385000       0.44096000
   112  C          0.36202190       0.71385000       0.05904000
   113  H          0.33500000       0.84050000       0.48010000
   114  H          0.66500000       0.34050000       0.01990000
   115  H          0.66500000       0.15950000       0.51990000
   116  H          0.33500000       0.65950000       0.98010000
   117  H          0.39240000       0.72790000       0.51610000
   118  H          0.60760000       0.22790000       0.98390000
   119  H          0.60760000       0.27210000       0.48390000
   120  H          0.39240000       0.77210000       0.01610000
   121  C          0.39003000       0.93017000       0.65806000
   122  C          0.60997000       0.43017000       0.84194000
   123  C          0.60997000       0.06983000       0.34194000
   124  C          0.39003000       0.56983000       0.15806000
   125  C          0.42214000       0.06591000       0.58321000
   126  C          0.57786000       0.56591000       0.91679000
   127  C          0.57786000       0.93409000       0.41679000
   128  C          0.42214000       0.43409000       0.08321000
   129  C          0.45202000       0.20518000       0.68367000
   130  C          0.54798000       0.70518000       0.81633000
   131  C          0.54798000       0.79482000       0.31633000
   132  C          0.45202000       0.29482000       0.18367000
   133  H          0.42460000       0.25530000       0.73900000
   134  H          0.57540000       0.75530000       0.76100000
   135  H          0.57540000       0.74470000       0.26100000
   136  H          0.42460000       0.24470000       0.23900000
   137  H          0.46660000       0.29660000       0.62740000
   138  H          0.53340000       0.79660000       0.87260000
   139  H          0.53340000       0.70340000       0.37260000
   140  H          0.46660000       0.20340000       0.12740000
   141  H          0.48410000       0.15290000       0.74880000
   142  H          0.51590000       0.65290000       0.75120000
   143  H          0.51590000       0.84710000       0.25120000
   144  H          0.48410000       0.34710000       0.24880000
   145  C          0.04618140       0.22566000       0.45263000
   146  C          0.95381860       0.72566000       0.04737000
   147  C          0.95381860       0.77434000       0.54737000
   148  C          0.04618140       0.27434000       0.95263000
   149  N          0.07143120       0.37106000       0.40833000
   150  N          0.92856880       0.87106000       0.09167000
   151  N          0.92856880       0.62894000       0.59167000
   152  N          0.07143120       0.12894000       0.90833000
   153  N          0.02650160       0.10586000       0.34793000
   154  N          0.97349840       0.60586000       0.15207000
   155  N          0.97349840       0.89414000       0.65207000
   156  N          0.02650160       0.39414000       0.84793000
   157  O          0.04130100       0.20277000       0.58145190
   158  O          0.95869900       0.70277000       0.91854810
   159  O          0.95869900       0.79723000       0.41854810
   160  O          0.04130100       0.29723000       0.08145190
   161  H          0.02741100       0.12760000       0.26030000
   162  H          0.97258900       0.62760000       0.23970000
   163  H          0.97258900       0.87240000       0.73970000
   164  H          0.02741100       0.37240000       0.76030000
   165  H          0.11701300       0.84560000       0.57630000
   166  H          0.88298700       0.34560000       0.92370000
   167  H          0.88298700       0.15440000       0.42370000
   168  H          0.11701300       0.65440000       0.07630000
   169  H          0.07381300       0.38760000       0.32630000
   170  H          0.92618700       0.88760000       0.17370000
   171  H          0.92618700       0.61240000       0.67370000
   172  H          0.07381300       0.11240000       0.82630000
   173  H          0.00571500       0.02750000       0.37640000
   174  H         -0.00571500       0.52750000       0.12360000
   175  H         -0.00571500       0.97250000       0.62360000
   176  H          0.00571500       0.47250000       0.87640000
   177  H          0.35920000      -0.00730000       0.69750000
   178  H          0.64080000       0.49270000       0.80250000
   179  H          0.64080000       0.00730000       0.30250000
   180  H          0.35920000       0.50730000       0.19750000
   181  H          0.45520000       0.00590000       0.55970000
   182  H          0.54480000       0.50590000       0.94030000
   183  H          0.54480000      -0.00590000       0.44030000
   184  H          0.45520000       0.49410000       0.05970000
   185  H          0.39930000       0.10790000       0.50060000
   186  H          0.60070000       0.60790000      -0.00060000
   187  H          0.60070000       0.89210000       0.49940000
   188  H          0.39930000       0.39210000       0.00060000
