data_YAQNAG01
_symmetry_space_group_name_H-M    'P1'
_symmetry_Int_Tables_number       1
loop_
_symmetry_equiv_pos_site_id
_symmetry_equiv_pos_as_xyz
1 x,y,z
_cell_length_a                   22.9365
_cell_length_b                   7.412716
_cell_length_c                   9.3142
_cell_angle_alpha                90.0
_cell_angle_beta                 99.2904
_cell_angle_gamma                90.0
loop_
_atom_site_label
_atom_site_type_symbol
_atom_site_fract_x
_atom_site_fract_y
_atom_site_fract_z
     1  C          0.04695900       0.72987000       0.94948000
     2  C          0.95304100       0.22987000       0.55052000
     3  C          0.95304100       0.27013000       0.05052000
     4  C          0.04695900       0.77013000       0.44948000
     5  N          0.07239900       0.87687000       0.90628000
     6  N          0.92760100       0.37687000       0.59372000
     7  N          0.92760100       0.12313000       0.09372000
     8  N          0.07239900       0.62313000       0.40628000
     9  N          0.02635100       0.60817000       0.84858000
    10  N          0.97364900       0.10817000       0.65142000
    11  N          0.97364900       0.39183000       0.15142000
    12  N          0.02635100       0.89183000       0.34858000
    13  O          0.04271700       0.70608000       0.08057140
    14  O          0.95728300       0.20608000       0.41942860
    15  O          0.95728300       0.29392000       0.91942860
    16  O          0.04271700       0.79392000       0.58057140
    17  C          0.18294120       0.45633000       0.94898000
    18  C          0.81705880       0.95633000       0.55102000
    19  C          0.81705880       0.54367000       0.05102000
    20  C          0.18294120       0.04367000       0.44898000
    21  C          0.15193120       0.31413000       0.02492000
    22  C          0.84806880       0.81413000       0.47508000
    23  C          0.84806880       0.68587000       0.97508000
    24  C          0.15193120       0.18587000       0.52492000
    25  C          0.09631120       0.02013000       0.00432000
    26  C          0.90368880       0.52013000       0.49568000
    27  C          0.90368880       0.97987000      -0.00432000
    28  C          0.09631120       0.47987000       0.50432000
    29  C          0.27368130       0.89214000       0.06953000
    30  C          0.72631870       0.39214000       0.43047000
    31  C          0.72631870       0.10786000       0.93047000
    32  C          0.27368130       0.60786000       0.56953000
    33  C          0.21227130       0.60394000       0.04913000
    34  C          0.78772870       0.10394000       0.45087000
    35  C          0.78772870       0.39606000       0.95087000
    36  C          0.21227130       0.89606000       0.54913000
    37  C          0.24232130       0.74644000       0.97197000
    38  C          0.75767870       0.24644000       0.52803000
    39  C          0.75767870       0.25356000       0.02803000
    40  C          0.24232130       0.75356000       0.47197000
    41  C          0.12478120       0.16463000       0.92578000
    42  C          0.87521880       0.66463000       0.57422000
    43  C          0.87521880       0.83537000       0.07422000
    44  C          0.12478120       0.33537000       0.42578000
    45  C          0.30250130       0.03514000      -0.01083000
    46  C          0.69749870       0.53514000       0.51083000
    47  C          0.69749870       0.96486000       0.01083000
    48  C          0.30250130       0.46486000       0.48917000
    49  C          0.33524140       0.17894000       0.08693000
    50  C          0.66475860       0.67894000       0.41307000
    51  C          0.66475860       0.82106000       0.91307000
    52  C          0.33524140       0.32106000       0.58693000
    53  C          0.36346150       0.32274000       0.00563000
    54  C          0.63653850       0.82274000       0.49437000
    55  C          0.63653850       0.67726000      -0.00563000
    56  C          0.36346150       0.17726000       0.50563000
    57  C          0.39683170       0.46754000       0.10074000
    58  C          0.60316830       0.96754000       0.39926000
    59  C          0.60316830       0.53246000       0.89926000
    60  C          0.39683170       0.03246000       0.60074000
    61  C          0.42205180       0.61295000       0.01655000
    62  C          0.57794820       0.11295000       0.48345000
    63  C          0.57794820       0.38705000       0.98345000
    64  C          0.42205180       0.88705000       0.51655000
    65  C          0.45733000       0.75267000       0.11229000
    66  C          0.54267000       0.25267000       0.38771000
    67  C          0.54267000       0.24733000       0.88771000
    68  C          0.45733000       0.74733000       0.61229000
    69  H          0.12018000       0.37230000       0.06720000
    70  H          0.87982000       0.87230000       0.43280000
    71  H          0.87982000       0.62770000       0.93280000
    72  H          0.12018000       0.12770000       0.56720000
    73  H          0.17979000       0.26630000       0.10320000
    74  H          0.82021000       0.76630000       0.39680000
    75  H          0.82021000       0.73370000       0.89680000
    76  H          0.17979000       0.23370000       0.60320000
    77  H          0.27271000       0.68030000       0.91770000
    78  H          0.72729000       0.18030000       0.58230000
    79  H          0.72729000       0.31970000       0.08230000
    80  H          0.27271000       0.81970000       0.41770000
    81  H          0.18099000       0.66530000       0.09520000
    82  H          0.81901000       0.16530000       0.40480000
    83  H          0.81901000       0.33470000       0.90480000
    84  H          0.18099000       0.83470000       0.59520000
    85  H          0.30371000       0.83530000       0.14730000
    86  H          0.69629000       0.33530000       0.35270000
    87  H          0.69629000       0.16470000       0.85270000
    88  H          0.30371000       0.66470000       0.64730000
    89  H          0.33271200       0.38440000       0.93670000
    90  H          0.66728800       0.88440000       0.56330000
    91  H          0.66728800       0.61560000       0.06330000
    92  H          0.33271200       0.11560000       0.43670000
    93  H          0.33081000       0.97530000       0.93670000
    94  H          0.66919000       0.47530000       0.56330000
    95  H          0.66919000       0.02470000       0.06330000
    96  H          0.33081000       0.52470000       0.43670000
    97  H          0.12689000       0.96770000       0.08120000
    98  H          0.87311000       0.46770000       0.41880000
    99  H          0.87311000       0.03230000       0.91880000
   100  H          0.12689000       0.53230000       0.58120000
   101  H          0.21239000       0.39430000       0.90080000
   102  H          0.78761000       0.89430000       0.59920000
   103  H          0.78761000       0.60570000       0.09920000
   104  H          0.21239000       0.10570000       0.40080000
   105  H          0.24201100       0.55340000       0.12230000
   106  H          0.75798900       0.05340000       0.37770000
   107  H          0.75798900       0.44660000       0.87770000
   108  H          0.24201100       0.94660000       0.62230000
   109  H          0.36361300       0.12540000       0.16330000
   110  H          0.63638700       0.62540000       0.33670000
   111  H          0.63638700       0.87460000       0.83670000
   112  H          0.36361300       0.37460000       0.66330000
   113  H          0.39061100       0.25840000       0.95570000
   114  H          0.60938900       0.75840000       0.54430000
   115  H          0.60938900       0.74160000       0.04430000
   116  H          0.39061100       0.24160000       0.45570000
   117  H          0.26971300       0.09840000       0.91670000
   118  H          0.73028700       0.59840000       0.58330000
   119  H          0.73028700       0.90160000       0.08330000
   120  H          0.26971300       0.40160000       0.41670000
   121  H          0.06321000       0.08340000       0.05330000
   122  H          0.93679000       0.58340000       0.44670000
   123  H          0.93679000       0.91660000       0.94670000
   124  H          0.06321000       0.41660000       0.55330000
   125  H          0.21371200       0.80040000       0.90770000
   126  H          0.78628800       0.30040000       0.59230000
   127  H          0.78628800       0.19960000       0.09230000
   128  H          0.21371200       0.69960000       0.40770000
   129  H          0.15501000       0.11230000       0.88080000
   130  H          0.84499000       0.61230000       0.61920000
   131  H          0.84499000       0.88770000       0.11920000
   132  H          0.15501000       0.38770000       0.38080000
   133  H          0.24361000       0.95230000       0.12220000
   134  H          0.75639000       0.45230000       0.37780000
   135  H          0.75639000       0.04770000       0.87780000
   136  H          0.24361000       0.54770000       0.62220000
   137  H          0.43021500       0.42150000       0.16240000
   138  H          0.56978500       0.92150000       0.33760000
   139  H          0.56978500       0.57850000       0.83760000
   140  H          0.43021500       0.07850000       0.66240000
   141  H          0.30501000       0.23840000       0.14130000
   142  H          0.69499000       0.73840000       0.35870000
   143  H          0.69499000       0.76160000       0.85870000
   144  H          0.30501000       0.26160000       0.64130000
   145  H          0.38741800       0.66260000       0.94150000
   146  H          0.61258200       0.16260000       0.55850000
   147  H          0.61258200       0.33740000       0.05850000
   148  H          0.38741800       0.83740000       0.44150000
   149  H          0.15411200       0.51540000       0.87570000
   150  H          0.84588800       0.01540000       0.62430000
   151  H          0.84588800       0.48460000       0.12430000
   152  H          0.15411200      -0.01540000       0.37570000
   153  H          0.44801500       0.54850000       0.95060000
   154  H          0.55198500       0.04850000       0.54940000
   155  H          0.55198500       0.45150000       0.04940000
   156  H          0.44801500       0.95150000       0.45060000
   157  H          0.09611200       0.20540000       0.85170000
   158  H          0.90388800       0.70540000       0.64830000
   159  H          0.90388800       0.79460000       0.14830000
   160  H          0.09611200       0.29460000       0.35170000
   161  H          0.49520000       0.68770000       0.16950000
   162  H          0.50480000       0.18770000       0.33050000
   163  H          0.50480000       0.31230000       0.83050000
   164  H          0.49520000       0.81230000       0.66950000
   165  H          0.43081700       0.82860000       0.16840000
   166  H          0.56918300       0.32860000       0.33160000
   167  H          0.56918300       0.17140000       0.83160000
   168  H          0.43081700       0.67140000       0.66840000
   169  H          0.36951200       0.52140000       0.15930000
   170  H          0.63048800       0.02140000       0.34070000
   171  H          0.63048800       0.47860000       0.84070000
   172  H          0.36951200       0.97860000       0.65930000
   173  H          0.02759000       0.62670000       0.76570000
   174  H          0.97241000       0.12670000       0.73430000
   175  H          0.97241000       0.37330000       0.23430000
   176  H          0.02759000       0.87330000       0.26570000
   177  H          0.07551100       0.89660000       0.82770000
   178  H          0.92448900       0.39660000       0.67230000
   179  H          0.92448900       0.10340000       0.17230000
   180  H          0.07551100       0.60340000       0.32770000
   181  H          0.00221000       0.50460000       0.86980000
   182  H         -0.00221000       0.00460000       0.63020000
   183  H         -0.00221000       0.49540000       0.13020000
   184  H          0.00221000      -0.00460000       0.36980000
   185  H          0.47031800       0.83660000       0.05950000
   186  H          0.52968200       0.33660000       0.44050000
   187  H          0.52968200       0.16340000       0.94050000
   188  H          0.47031800       0.66340000       0.55950000
