data_YAQNAG02
_symmetry_space_group_name_H-M    'P1'
_symmetry_Int_Tables_number       1
loop_
_symmetry_equiv_pos_site_id
_symmetry_equiv_pos_as_xyz
1 x,y,z
_cell_length_a                   21.9861
_cell_length_b                   7.4053
_cell_length_c                   9.3134
_cell_angle_alpha                90.0
_cell_angle_beta                 93.9098
_cell_angle_gamma                90.0
loop_
_atom_site_label
_atom_site_type_symbol
_atom_site_fract_x
_atom_site_fract_y
_atom_site_fract_z
     1  C          0.09661150       0.97594000       0.04523000
     2  C          0.90338850       0.47594000       0.45477000
     3  C          0.90338850       0.02406000       0.95477000
     4  C          0.09661150       0.52406000       0.54523000
     5  C          0.12883150       0.83214000       0.13713000
     6  C          0.87116850       0.33214000       0.36287000
     7  C          0.87116850       0.16786000       0.86287000
     8  C          0.12883150       0.66786000       0.63713000
     9  C          0.15308160       0.68054000       0.04803000
    10  C          0.84691840       0.18054000       0.45197000
    11  C          0.84691840       0.31946000       0.95197000
    12  C          0.15308160       0.81946000       0.54803000
    13  C          0.18862160       0.53814000       0.13573000
    14  C          0.81137840       0.03814000       0.36427000
    15  C          0.81137840       0.46186000       0.86427000
    16  C          0.18862160       0.96186000       0.63573000
    17  C          0.21388160       0.38804000       0.04473000
    18  C          0.78611840       0.88804000       0.45527000
    19  C          0.78611840       0.61196000       0.95527000
    20  C          0.21388160       0.11196000       0.54473000
    21  C          0.24955170       0.24504000       0.13294000
    22  C          0.75044830       0.74504000       0.36706000
    23  C          0.75044830       0.75496000       0.86706000
    24  C          0.24955170       0.25496000       0.63294000
    25  C          0.27554170       0.09564000       0.04273000
    26  C          0.72445830       0.59564000       0.45727000
    27  C          0.72445830       0.90436000       0.95727000
    28  C          0.27554170       0.40436000       0.54273000
    29  C          0.31119170       0.95415000       0.13134000
    30  C          0.68880830       0.45415000       0.36866000
    31  C          0.68880830       0.04585000       0.86866000
    32  C          0.31119170       0.54585000       0.63134000
    33  C          0.33681160       0.80345000       0.04104000
    34  C          0.66318840       0.30345000       0.45896000
    35  C          0.66318840       0.19655000       0.95896000
    36  C          0.33681160       0.69655000       0.54104000
    37  C          0.37323180       0.66295000       0.12874000
    38  C          0.62676820       0.16295000       0.37126000
    39  C          0.62676820       0.33705000       0.87126000
    40  C          0.37323180       0.83705000       0.62874000
    41  C          0.39769170       0.50855000       0.04074000
    42  C          0.60230830       0.00855000       0.45926000
    43  C          0.60230830       0.49145000       0.95926000
    44  C          0.39769170      -0.00855000       0.54074000
    45  C          0.43532000       0.37304000       0.12935000
    46  C          0.56468000       0.87304000       0.37065000
    47  C          0.56468000       0.62696000       0.87065000
    48  C          0.43532000       0.12696000       0.62935000
    49  C          0.45892000       0.21624000       0.04336000
    50  C          0.54108000       0.71624000       0.45664000
    51  C          0.54108000       0.78376000       0.95664000
    52  C          0.45892000       0.28376000       0.54336000
    53  C          0.04806130       0.27144000       0.07603000
    54  C          0.95193870       0.77144000       0.42397000
    55  C          0.95193870       0.72856000       0.92397000
    56  C          0.04806130       0.22856000       0.57603000
    57  H          0.07771400       0.11550000       0.22640000
    58  H          0.92228600       0.61550000       0.27360000
    59  H          0.92228600       0.88450000       0.77360000
    60  H          0.07771400       0.38450000       0.72640000
    61  H          0.02921300       0.37340000       0.25640000
    62  H          0.97078700       0.87340000       0.24360000
    63  H          0.97078700       0.62660000       0.74360000
    64  H          0.02921300       0.12660000       0.75640000
    65  H          0.00501800       0.48360000       0.12840000
    66  H         -0.00501800      -0.01640000       0.37160000
    67  H         -0.00501800       0.51640000       0.87160000
    68  H          0.00501800       0.01640000       0.62840000
    69  H          0.12361200       0.02740000       0.97670000
    70  H          0.87638800       0.52740000       0.52330000
    71  H          0.87638800       0.97260000       0.02330000
    72  H          0.12361200       0.47260000       0.47670000
    73  H          0.16441300       0.89140000       0.20330000
    74  H          0.83558700       0.39140000       0.29670000
    75  H          0.83558700       0.10860000       0.79670000
    76  H          0.16441300       0.60860000       0.70330000
    77  H          0.18011400       0.72450000       0.97360000
    78  H          0.81988600       0.22450000       0.52640000
    79  H          0.81988600       0.27550000       0.02640000
    80  H          0.18011400       0.77550000       0.47360000
    81  H          0.22411500       0.59150000       0.19840000
    82  H          0.77588500       0.09150000       0.30160000
    83  H          0.77588500       0.40850000       0.80160000
    84  H          0.22411500       0.90850000       0.69840000
    85  H          0.23931400       0.43850000       0.97970000
    86  H          0.76068600       0.93850000       0.52030000
    87  H          0.76068600       0.56150000       0.02030000
    88  H          0.23931400       0.06150000       0.47970000
    89  H          0.28391700       0.29450000       0.18940000
    90  H          0.71608300       0.79450000       0.31060000
    91  H          0.71608300       0.70550000       0.81060000
    92  H          0.28391700       0.20550000       0.68940000
    93  H          0.30351400       0.13850000       0.97360000
    94  H          0.69648600       0.63850000       0.52640000
    95  H          0.69648600       0.86150000       0.02640000
    96  H          0.30351400       0.36150000       0.47360000
    97  H          0.34681500       0.00850000       0.18340000
    98  H          0.65318500       0.50850000       0.31660000
    99  H          0.65318500      -0.00850000       0.81660000
   100  H          0.34681500       0.49150000       0.68340000
   101  H          0.36511300       0.85060000       0.97270000
   102  H          0.63488700       0.35060000       0.52730000
   103  H          0.63488700       0.14940000       0.02730000
   104  H          0.36511300       0.64940000       0.47270000
   105  H          0.40961400       0.72050000       0.17930000
   106  H          0.59038600       0.22050000       0.32070000
   107  H          0.59038600       0.27950000       0.82070000
   108  H          0.40961400       0.77950000       0.67930000
   109  H          0.42411500       0.55550000       0.95760000
   110  H          0.57588500       0.05550000       0.54240000
   111  H          0.57588500       0.44450000       0.04240000
   112  H          0.42411500       0.94450000       0.45760000
   113  H          0.47081600       0.43550000       0.16840000
   114  H          0.52918400       0.93550000       0.33160000
   115  H          0.52918400       0.56450000       0.83160000
   116  H          0.47081600       0.06450000       0.66840000
   117  H          0.48481900       0.26340000       0.95750000
   118  H          0.51518100       0.76340000       0.54250000
   119  H          0.51518100       0.73660000       0.04250000
   120  H          0.48481900       0.23660000       0.45750000
   121  H          0.06091400       0.92550000      -0.00730000
   122  H          0.93908600       0.42550000       0.50730000
   123  H          0.93908600       0.07450000       0.00730000
   124  H          0.06091400       0.57450000       0.49270000
   125  H          0.10161600       0.78450000       0.20140000
   126  H          0.89838400       0.28450000       0.29860000
   127  H          0.89838400       0.21550000       0.79860000
   128  H          0.10161600       0.71550000       0.70140000
   129  H          0.11831400       0.62940000      -0.00730000
   130  H          0.88168600       0.12940000       0.50730000
   131  H          0.88168600       0.37060000       0.00730000
   132  H          0.11831400       0.87060000       0.49270000
   133  H          0.16241500       0.48450000       0.20440000
   134  H          0.83758500      -0.01550000       0.29560000
   135  H          0.83758500       0.51550000       0.79560000
   136  H          0.16241500       0.01550000       0.70440000
   137  H          0.17651400       0.33040000      -0.00630000
   138  H          0.82348600       0.83040000       0.50630000
   139  H          0.82348600       0.66960000       0.00630000
   140  H          0.17651400       0.16960000       0.49370000
   141  H          0.21981500       0.19050000       0.19940000
   142  H          0.78018500       0.69050000       0.30060000
   143  H          0.78018500       0.80950000       0.80060000
   144  H          0.21981500       0.30950000       0.69940000
   145  H          0.24161300       0.03940000      -0.01430000
   146  H          0.75838700       0.53940000       0.51430000
   147  H          0.75838700       0.96060000       0.01430000
   148  H          0.24161300       0.46060000       0.48570000
   149  H          0.28171700       0.90050000       0.20140000
   150  H          0.71828300       0.40050000       0.29860000
   151  H          0.71828300       0.09950000       0.79860000
   152  H          0.28171700       0.59950000       0.70140000
   153  H          0.30161400       0.74760000      -0.00930000
   154  H          0.69838600       0.24760000       0.50930000
   155  H          0.69838600       0.25240000       0.00930000
   156  H          0.30161400       0.75240000       0.49070000
   157  H          0.34781800       0.60840000       0.20950000
   158  H          0.65218200       0.10840000       0.29050000
   159  H          0.65218200       0.39160000       0.79050000
   160  H          0.34781800       0.89160000       0.70950000
   161  H          0.36391400       0.44250000      -0.01130000
   162  H          0.63608600       0.94250000       0.51130000
   163  H          0.63608600       0.55750000       0.01130000
   164  H          0.36391400       0.05750000       0.48870000
   165  H          0.40920000       0.32130000       0.20350000
   166  H          0.59080000       0.82130000       0.29650000
   167  H          0.59080000       0.67870000       0.79650000
   168  H          0.40920000       0.17870000       0.70350000
   169  H          0.42571800       0.14740000       0.00240000
   170  H          0.57428200       0.64740000       0.49760000
   171  H          0.57428200       0.85260000      -0.00240000
   172  H          0.42571800       0.35260000       0.50240000
   173  H          0.48620000       0.13030000       0.09750000
   174  H          0.51380000       0.63030000       0.40250000
   175  H          0.51380000       0.86970000       0.90250000
   176  H          0.48620000       0.36970000       0.59750000
   177  N          0.07496120       0.12073000       0.13302000
   178  N          0.92503880       0.62073000       0.36698000
   179  N          0.92503880       0.87927000       0.86698000
   180  N          0.07496120       0.37927000       0.63302000
   181  N          0.02867140       0.39364000       0.16833000
   182  N          0.97132860       0.89364000       0.33167000
   183  N          0.97132860       0.60636000       0.83167000
   184  N          0.02867140       0.10636000       0.66833000
   185  O          0.04305100       0.29403000       0.94260810
   186  O          0.95694900       0.79403000       0.55739190
   187  O          0.95694900       0.70597000       0.05739190
   188  O          0.04305100       0.20597000       0.44260810
