data_YEJLII02
_symmetry_space_group_name_H-M    'P1'
_symmetry_Int_Tables_number       1
loop_
_symmetry_equiv_pos_site_id
_symmetry_equiv_pos_as_xyz
1 x,y,z
_cell_length_a                   7.761715
_cell_length_b                   12.9123
_cell_length_c                   15.6633
_cell_angle_alpha                90.0
_cell_angle_beta                 95.1416
_cell_angle_gamma                90.0
loop_
_atom_site_label
_atom_site_type_symbol
_atom_site_fract_x
_atom_site_fract_y
_atom_site_fract_z
     1  I          0.39584400       0.67281200       0.15367716
     2  I          0.60415600       0.17281200       0.34632284
     3  I          0.60415600       0.32718800       0.84632284
     4  I          0.39584400       0.82718800       0.65367716
     5  N          0.33575000       0.84713000       0.29862000
     6  N          0.66425000       0.34713000       0.20138000
     7  N          0.66425000       0.15287000       0.70138000
     8  N          0.33575000       0.65287000       0.79862000
     9  H          0.30150000       0.85040000       0.24508000
    10  H          0.69850000       0.35040000       0.25492000
    11  H          0.69850000       0.14960000       0.75492000
    12  H          0.30150000       0.64960000       0.74508000
    13  H          0.30160000       0.89330000       0.33330000
    14  H          0.69840000       0.39330000       0.16670000
    15  H          0.69840000       0.10670000       0.66670000
    16  H          0.30160000       0.60670000       0.83330000
    17  O          0.74464000       0.51513000       0.52627180
    18  O          0.25536000       0.01513000       0.97372820
    19  O          0.25536000       0.48487000       0.47372820
    20  O          0.74464000       0.98487000       0.02627180
    21  O          0.75985000       0.44633000       0.40202000
    22  O          0.24015000       0.94633000       0.09798000
    23  O          0.24015000       0.55367000       0.59798000
    24  O          0.75985000       0.05367000       0.90202000
    25  C          0.41985000       0.76413000       0.33352000
    26  C          0.58015000       0.26413000       0.16648000
    27  C          0.58015000       0.23587000       0.66648000
    28  C          0.41985000       0.73587000       0.83352000
    29  N          0.71044000       0.51513000       0.44812000
    30  N          0.28956000       0.01513000       0.05188000
    31  N          0.28956000       0.48487000       0.55188000
    32  N          0.71044000       0.98487000       0.94812000
    33  C          0.46905000       0.67883000       0.28522000
    34  C          0.53095000       0.17883000       0.21478000
    35  C          0.53095000       0.32117000       0.71478000
    36  C          0.46905000       0.82117000       0.78522000
    37  C          0.56375000       0.59723000       0.32222000
    38  C          0.43625000       0.09723000       0.17778000
    39  C          0.43625000       0.40277000       0.67778000
    40  C          0.56375000       0.90277000       0.82222000
    41  H          0.59760000       0.54260000       0.28890000
    42  H          0.40240000       0.04260000       0.21110000
    43  H          0.40240000       0.45740000       0.71110000
    44  H          0.59760000       0.95740000       0.78890000
    45  C          0.60705000       0.59843000       0.40972000
    46  C          0.39295000       0.09843000       0.09028000
    47  C          0.39295000       0.40157000       0.59028000
    48  C          0.60705000       0.90157000       0.90972000
    49  C          0.55625000       0.67933000       0.46002000
    50  C          0.44375000       0.17933000       0.03998000
    51  C          0.44375000       0.32067000       0.53998000
    52  C          0.55625000       0.82067000       0.96002000
    53  H          0.58400000       0.67860000       0.51900000
    54  H          0.41600000       0.17860000       0.98100000
    55  H          0.41600000       0.32140000       0.48100000
    56  H          0.58400000       0.82140000       0.01900000
    57  C          0.46575000       0.75933000       0.42252000
    58  C          0.53425000       0.25933000       0.07748000
    59  C          0.53425000       0.24067000       0.57748000
    60  C          0.46575000       0.74067000       0.92252000
    61  H          0.43250000       0.81320000       0.45680000
    62  H          0.56750000       0.31320000       0.04320000
    63  H          0.56750000       0.18680000       0.54320000
    64  H          0.43250000       0.68680000       0.95680000
    65  I          0.82449400       0.87837200       0.21973616
    66  I          0.17550600       0.37837200       0.28026384
    67  I          0.17550600       0.12162800       0.78026384
    68  I          0.82449400       0.62162800       0.71973616
    69  N          0.00476000       0.67123000       0.30793000
    70  N         -0.00476000       0.17123000       0.19207000
    71  N         -0.00476000       0.32877000       0.69207000
    72  N          0.00476000       0.82877000       0.80793000
    73  H          0.96470000       0.67850000       0.25531200
    74  H          0.03530000       0.17850000       0.24468800
    75  H          0.03530000       0.32150000       0.74468800
    76  H          0.96470000       0.82150000       0.75531200
    77  H          0.06250000       0.61820000       0.32830000
    78  H          0.93750000       0.11820000       0.17170000
    79  H          0.93750000       0.38180000       0.67170000
    80  H          0.06250000       0.88180000       0.82830000
    81  O          0.73405000       0.01893000       0.53972000
    82  O          0.26595000       0.51893000       0.96028000
    83  O          0.26595000       0.98107000       0.46028000
    84  O          0.73405000       0.48107000       0.03972000
    85  O          0.86664000       0.92363000       0.63678180
    86  O          0.13336000       0.42363000       0.86321820
    87  O          0.13336000       0.07637000       0.36321820
    88  O          0.86664000       0.57637000       0.13678180
    89  C          0.96545000       0.74073000       0.36822000
    90  C          0.03455000       0.24073000       0.13178000
    91  C          0.03455000       0.25927000       0.63178000
    92  C          0.96545000       0.75927000       0.86822000
    93  C          0.88175000       0.83413000       0.34762000
    94  C          0.11825000       0.33413000       0.15238000
    95  C          0.11825000       0.16587000       0.65238000
    96  C          0.88175000       0.66587000       0.84762000
    97  C          0.83435000       0.89993000       0.41072000
    98  C          0.16565000       0.39993000       0.08928000
    99  C          0.16565000       0.10007000       0.58928000
   100  C          0.83435000       0.60007000       0.91072000
   101  H          0.77510000       0.96090000       0.39620000
   102  H          0.22490000       0.46090000       0.10380000
   103  H          0.22490000       0.03910000       0.60380000
   104  H          0.77510000       0.53910000       0.89620000
   105  C          0.87555000       0.87453000       0.49612000
   106  C          0.12445000       0.37453000       0.00388000
   107  C          0.12445000       0.12547000       0.50388000
   108  C          0.87555000       0.62547000      -0.00388000
   109  N          0.82135000       0.94313000       0.56142000
   110  N          0.17865000       0.44313000       0.93858000
   111  N          0.17865000       0.05687000       0.43858000
   112  N          0.82135000       0.55687000       0.06142000
   113  C          0.96515000       0.78393000       0.51852000
   114  C          0.03485000       0.28393000       0.98148000
   115  C          0.03485000       0.21607000       0.48148000
   116  C          0.96515000       0.71607000       0.01852000
   117  H         -0.00510000       0.76800000       0.57580000
   118  H          0.00510000       0.26800000       0.92420000
   119  H          0.00510000       0.23200000       0.42420000
   120  H         -0.00510000       0.73200000       0.07580000
   121  C          0.00875000       0.71853000       0.45563000
   122  C         -0.00875000       0.21853000       0.04437000
   123  C         -0.00875000       0.28147000       0.54437000
   124  C          0.00875000       0.78147000       0.95563000
   125  H          0.06850000       0.65790000       0.47060000
   126  H          0.93150000       0.15790000       0.02940000
   127  H          0.93150000       0.34210000       0.52940000
   128  H          0.06850000       0.84210000       0.97060000
