data_YEJLII
_symmetry_space_group_name_H-M    'P1'
_symmetry_Int_Tables_number       1
loop_
_symmetry_equiv_pos_site_id
_symmetry_equiv_pos_as_xyz
1 x,y,z
_cell_length_a                   7.42155
_cell_length_b                   12.67559
_cell_length_c                   16.463811
_cell_angle_alpha                90.0
_cell_angle_beta                 90.0
_cell_angle_gamma                90.0
loop_
_atom_site_label
_atom_site_type_symbol
_atom_site_fract_x
_atom_site_fract_y
_atom_site_fract_z
     1  C          0.58271100       0.47477000       0.30565000
     2  C          0.91728900       0.52523000       0.80565000
     3  C          0.41728900       0.97477000       0.19435000
     4  C          0.08271100       0.02523000       0.69435000
     5  C          0.41728900       0.52523000       0.69435000
     6  C          0.08271100       0.47477000       0.19435000
     7  C          0.58271100       0.02523000       0.80565000
     8  C          0.91728900       0.97477000       0.30565000
     9  N          0.55121100       0.42406000       0.37435000
    10  N          0.94878900       0.57594000       0.87435000
    11  N          0.44878900       0.92406000       0.12565000
    12  N          0.05121100       0.07594000       0.62565000
    13  N          0.44878900       0.57594000       0.62565000
    14  N          0.05121100       0.42406000       0.12565000
    15  N          0.55121100       0.07594000       0.87435000
    16  N          0.94878900       0.92406000       0.37435000
    17  C          0.63641000       0.58287000       0.30304000
    18  C          0.86359000       0.41713000       0.80304000
    19  C          0.36359000       0.08287000       0.19696000
    20  C          0.13641000       0.91713000       0.69696000
    21  C          0.36359000       0.41713000       0.69696000
    22  C          0.13641000       0.58287000       0.19696000
    23  C          0.63641000       0.91713000       0.80304000
    24  C          0.86359000       0.08287000       0.30304000
    25  I          0.66772800       0.66835500       0.41043300
    26  I          0.83227200       0.33164500       0.91043300
    27  I          0.33227200       0.16835500       0.08956700
    28  I          0.16772800       0.83164500       0.58956700
    29  I          0.33227200       0.33164500       0.58956700
    30  I          0.16772800       0.66835500       0.08956700
    31  I          0.66772800       0.83164500       0.91043300
    32  I          0.83227200       0.16835500       0.41043300
    33  C          0.66361100       0.63316000       0.23075000
    34  C          0.83638900       0.36684000       0.73075000
    35  C          0.33638900       0.13316000       0.26925000
    36  C          0.16361100       0.86684000       0.76925000
    37  C          0.33638900       0.36684000       0.76925000
    38  C          0.16361100       0.63316000       0.26925000
    39  C          0.66361100       0.86684000       0.73075000
    40  C          0.83638900       0.13316000       0.23075000
    41  C          0.64011100       0.57897000       0.15935000
    42  C          0.85988900       0.42103000       0.65935000
    43  C          0.35988900       0.07897000       0.34065000
    44  C          0.14011100       0.92103000       0.84065000
    45  C          0.35988900       0.42103000       0.84065000
    46  C          0.14011100       0.57897000       0.34065000
    47  C          0.64011100       0.92103000       0.65935000
    48  C          0.85988900       0.07897000       0.15935000
    49  N          0.66421000       0.63327000       0.08344000
    50  N          0.83579000       0.36673000       0.58344000
    51  N          0.33579000       0.13327000       0.41656000
    52  N          0.16421000       0.86673000       0.91656000
    53  N          0.33579000       0.36673000       0.91656000
    54  N          0.16421000       0.63327000       0.41656000
    55  N          0.66421000       0.86673000       0.58344000
    56  N          0.83579000       0.13327000       0.08344000
    57  O          0.68251000       0.72986000       0.08504000
    58  O          0.81749000       0.27014000       0.58504000
    59  O          0.31749000       0.22986000       0.41496000
    60  O          0.18251000       0.77014000       0.91496000
    61  O          0.31749000       0.27014000       0.91496000
    62  O          0.18251000       0.72986000       0.41496000
    63  O          0.68251000       0.77014000       0.58504000
    64  O          0.81749000       0.22986000       0.08504000
    65  O          0.67039000       0.58366000       0.02014000
    66  O          0.82961000       0.41634000       0.52014000
    67  O          0.32961000       0.08366000       0.47986000
    68  O          0.17039000       0.91634000       0.97986000
    69  O          0.32961000       0.41634000       0.97986000
    70  O          0.17039000       0.58366000       0.47986000
    71  O          0.67039000       0.91634000       0.52014000
    72  O          0.82961000       0.08366000       0.02014000
    73  C          0.58851200       0.47398000       0.15866000
    74  C          0.91148800       0.52602000       0.65866000
    75  C          0.41148800       0.97398000       0.34134000
    76  C          0.08851200       0.02602000       0.84134000
    77  C          0.41148800       0.52602000       0.84134000
    78  C          0.08851200       0.47398000       0.34134000
    79  C          0.58851200       0.02602000       0.65866000
    80  C          0.91148800       0.97398000       0.15866000
    81  C          0.55951100       0.42337000       0.23076000
    82  C          0.94048900       0.57663000       0.73076000
    83  C          0.44048900       0.92337000       0.26924000
    84  C          0.05951100       0.07663000       0.76924000
    85  C          0.44048900       0.57663000       0.76924000
    86  C          0.05951100       0.42337000       0.26924000
    87  C          0.55951100       0.07663000       0.73076000
    88  C          0.94048900       0.92337000       0.23076000
    89  H          0.51640000       0.35930000       0.37340000
    90  H         -0.01640000       0.64070000       0.87340000
    91  H          0.48360000       0.85930000       0.12660000
    92  H          0.01640000       0.14070000       0.62660000
    93  H          0.48360000       0.64070000       0.62660000
    94  H          0.01640000       0.35930000       0.12660000
    95  H          0.51640000       0.14070000       0.87340000
    96  H         -0.01640000       0.85930000       0.37340000
    97  H          0.56550000       0.45570000       0.42010000
    98  H          0.93450000       0.54430000       0.92010000
    99  H          0.43450000       0.95570000       0.07990000
   100  H          0.06550000       0.04430000       0.57990000
   101  H          0.43450000       0.54430000       0.57990000
   102  H          0.06550000       0.45570000       0.07990000
   103  H          0.56550000       0.04430000       0.92010000
   104  H          0.93450000       0.95570000       0.42010000
   105  H          0.69790000       0.70360000       0.22990000
   106  H          0.80210000       0.29640000       0.72990000
   107  H          0.30210000       0.20360000       0.27010000
   108  H          0.19790000       0.79640000       0.77010000
   109  H          0.30210000       0.29640000       0.77010000
   110  H          0.19790000       0.70360000       0.27010000
   111  H          0.69790000       0.79640000       0.72990000
   112  H          0.80210000       0.20360000       0.22990000
   113  H          0.57370000       0.43830000       0.10960000
   114  H          0.92630000       0.56170000       0.60960000
   115  H          0.42630000       0.93830000       0.39040000
   116  H          0.07370000       0.06170000       0.89040000
   117  H          0.42630000       0.56170000       0.89040000
   118  H          0.07370000       0.43830000       0.39040000
   119  H          0.57370000       0.06170000       0.60960000
   120  H          0.92630000       0.93830000       0.10960000
   121  H          0.52340000       0.35300000       0.23020000
   122  H          0.97660000       0.64700000       0.73020000
   123  H          0.47660000       0.85300000       0.26980000
   124  H          0.02340000       0.14700000       0.76980000
   125  H          0.47660000       0.64700000       0.76980000
   126  H          0.02340000       0.35300000       0.26980000
   127  H          0.52340000       0.14700000       0.73020000
   128  H          0.97660000       0.85300000       0.23020000
