data_YEJLII01
_symmetry_space_group_name_H-M    'P1'
_symmetry_Int_Tables_number       1
loop_
_symmetry_equiv_pos_site_id
_symmetry_equiv_pos_as_xyz
1 x,y,z
_cell_length_a                   7.16474
_cell_length_b                   7.95724
_cell_length_c                   8.04895
_cell_angle_alpha                67.9053
_cell_angle_beta                 86.9563
_cell_angle_gamma                65.7442
loop_
_atom_site_label
_atom_site_type_symbol
_atom_site_fract_x
_atom_site_fract_y
_atom_site_fract_z
     1  N          0.56009000       0.12118000       0.10927000
     2  N          0.43991000       0.87882000       0.89073000
     3  C          0.55499000       0.96928000       0.25617000
     4  C          0.44501000       0.03072000       0.74383000
     5  C          0.37169000       0.95578000       0.31187000
     6  C          0.62831000       0.04422000       0.68813000
     7  I          0.08930600       0.17350500       0.15765500
     8  I          0.91069400       0.82649500       0.84234500
     9  C          0.37019000       0.80468000       0.46848000
    10  C          0.62981000       0.19532000       0.53152000
    11  C          0.55719000       0.66188000       0.56997000
    12  C          0.44281000       0.33812000       0.43003000
    13  O          0.39107000       0.50316000       0.78096000
    14  O          0.60893000       0.49684000       0.21904000
    15  O          0.72397000       0.37866000       0.82406000
    16  O          0.27603000       0.62134000       0.17594000
    17  N          0.55718000       0.50517000       0.73576000
    18  N          0.44282000       0.49483000       0.26424000
    19  C          0.74369000       0.66468000       0.51817000
    20  C          0.25631000       0.33532000       0.48183000
    21  C          0.74179000       0.81778000       0.36098000
    22  C          0.25821000       0.18222000       0.63902000
    23  H          0.44440000       0.21770000       0.04340000
    24  H          0.55560000       0.78230000       0.95660000
    25  H          0.67900000       0.12370000       0.07900000
    26  H          0.32100000       0.87630000       0.92100000
    27  H          0.24410000       0.79860000       0.50570000
    28  H          0.75590000       0.20140000       0.49430000
    29  H          0.86990000       0.56370000       0.58890000
    30  H          0.13010000       0.43630000       0.41110000
    31  H          0.86860000       0.82080000       0.32290000
    32  H          0.13140000       0.17920000       0.67710000
