data_YESBUW01
_symmetry_space_group_name_H-M    'P1'
_symmetry_Int_Tables_number       1
loop_
_symmetry_equiv_pos_site_id
_symmetry_equiv_pos_as_xyz
1 x,y,z
_cell_length_a                   21.427811
_cell_length_b                   4.94692
_cell_length_c                   15.51648
_cell_angle_alpha                90.0
_cell_angle_beta                 107.1582
_cell_angle_gamma                90.0
loop_
_atom_site_label
_atom_site_type_symbol
_atom_site_fract_x
_atom_site_fract_y
_atom_site_fract_z
     1  C          0.57850160       0.80457000       0.44652000
     2  C          0.42149840       0.30457000       0.05348000
     3  C          0.42149840       0.19543000       0.55348000
     4  C          0.57850160       0.69543000       0.94652000
     5  C          0.52283160       0.95117000       0.40192000
     6  C          0.47716840       0.45117000       0.09808000
     7  C          0.47716840       0.04883000       0.59808000
     8  C          0.52283160       0.54883000       0.90192000
     9  H          0.48379100       0.92418400       0.41538900
    10  H          0.51620900       0.42418400       0.08461100
    11  H          0.51620900       0.07581600       0.58461100
    12  H          0.48379100       0.57581600       0.91538900
    13  C          0.52662170       0.13457000       0.33822000
    14  C          0.47337830       0.63457000       0.16178000
    15  C          0.47337830       0.86543000       0.66178000
    16  C          0.52662170       0.36543000       0.83822000
    17  H          0.48993300       0.23542200       0.30856400
    18  H          0.51006700       0.73542200       0.19143600
    19  H          0.51006700       0.76457800       0.69143600
    20  H          0.48993300       0.26457800       0.80856400
    21  C          0.58516180       0.17347000       0.31652000
    22  C          0.41483820       0.67347000       0.18348000
    23  C          0.41483820       0.82653000       0.68348000
    24  C          0.58516180       0.32653000       0.81652000
    25  H          0.58698900       0.30024200       0.27313200
    26  H          0.41301100       0.80024200       0.22686800
    27  H          0.41301100       0.69975800       0.72686800
    28  H          0.58698900       0.19975800       0.77313200
    29  C          0.63979180       0.02497000       0.35922000
    30  C          0.36020820       0.52497000       0.14078000
    31  C          0.36020820      -0.02497000       0.64078000
    32  C          0.63979180       0.47503000       0.85922000
    33  H          0.67839900       0.05015800       0.34437400
    34  H          0.32160100       0.55015800       0.15562600
    35  H          0.32160100       0.94984200       0.65562600
    36  H          0.67839900       0.44984200       0.84437400
    37  C          0.63703150       0.83886000       0.42392000
    38  C          0.36296850       0.33886000       0.07608000
    39  C          0.36296850       0.16114000       0.57608000
    40  C          0.63703150       0.66114000       0.92392000
    41  C          0.67213150       0.52756000       0.53042000
    42  C          0.32786850       0.02756000       0.96958000
    43  C          0.32786850       0.47244000       0.46958000
    44  C          0.67213150      -0.02756000       0.03042000
    45  C          0.71339160       0.32997000       0.59162000
    46  C          0.28660840       0.82997000       0.90838000
    47  C          0.28660840       0.67003000       0.40838000
    48  C          0.71339160       0.17003000       0.09162000
    49  C          0.69411170       0.24497000       0.66612000
    50  C          0.30588830       0.74497000       0.83388000
    51  C          0.30588830       0.75503000       0.33388000
    52  C          0.69411170       0.25503000       0.16612000
    53  H          0.65663500       0.31895800       0.67505900
    54  H          0.34336500       0.81895800       0.82494100
    55  H          0.34336500       0.68104200       0.32494100
    56  H          0.65663500       0.18104200       0.17505900
    57  C          0.72848180       0.05728000       0.72582000
    58  C          0.27151820       0.55728000       0.77418000
    59  C          0.27151820       0.94272000       0.27418000
    60  C          0.72848180       0.44272000       0.22582000
    61  H          0.71411000       0.00764300       0.77453000
    62  H          0.28589000       0.50764300       0.72547000
    63  H          0.28589000      -0.00764300       0.22547000
    64  H          0.71411000       0.49235700       0.27453000
    65  C          0.78444160       0.93853000       0.71522000
    66  C          0.21555840       0.43853000       0.78478000
    67  C          0.21555840       0.06147000       0.28478000
    68  C          0.78444160       0.56147000       0.21522000
    69  C          0.82104190       0.74032000       0.77632000
    70  C          0.17895810       0.24032000       0.72368000
    71  C          0.17895810       0.25968000       0.22368000
    72  C          0.82104190       0.75968000       0.27632000
    73  H          0.80833000       0.69340800       0.82668000
    74  H          0.19167000       0.19340800       0.67332000
    75  H          0.19167000       0.30659200       0.17332000
    76  H          0.80833000       0.80659200       0.32668000
    77  C          0.87337190       0.62062000       0.76252000
    78  C          0.12662810       0.12062000       0.73748000
    79  C          0.12662810       0.37938000       0.23748000
    80  C          0.87337190       0.87938000       0.26252000
    81  H          0.89602200       0.49147000       0.80336100
    82  H          0.10397800      -0.00853000       0.69663900
    83  H          0.10397800       0.50853000       0.19663900
    84  H          0.89602200       0.00853000       0.30336100
    85  C          0.89518170       0.68623000       0.68672000
    86  C          0.10481830       0.18623000       0.81328000
    87  C          0.10481830       0.31377000       0.31328000
    88  C          0.89518170       0.81377000       0.18672000
    89  C          0.94914180       0.56132000       0.67093000
    90  C          0.05085820       0.06132000       0.82907000
    91  C          0.05085820       0.43868000       0.32907000
    92  C          0.94914180       0.93868000       0.17093000
    93  H          0.97184000       0.42935600       0.71057800
    94  H          0.02816000       0.92935600       0.78942200
    95  H          0.02816000       0.57064400       0.28942200
    96  H          0.97184000       0.07064400       0.21057800
    97  C          0.96914190       0.63102000       0.59763000
    98  C          0.03085810       0.13102000       0.90237000
    99  C          0.03085810       0.36898000       0.40237000
   100  C          0.96914190       0.86898000       0.09763000
   101  H          0.00549600       0.54709200       0.58847800
   102  H         -0.00549600       0.04709200       0.91152200
   103  H         -0.00549600       0.45290800       0.41152200
   104  H          0.00549600       0.95290800       0.08847800
   105  C          0.93613170       0.82322000       0.53763000
   106  C          0.06386830       0.32322000       0.96237000
   107  C          0.06386830       0.17678000       0.46237000
   108  C          0.93613170       0.67678000       0.03763000
   109  H          0.95002100       0.86560000       0.48785400
   110  H          0.04997900       0.36560000       0.01214600
   111  H          0.04997900       0.13440000       0.51214600
   112  H          0.95002100       0.63440000       0.98785400
   113  C          0.88187160       0.95663000       0.55022000
   114  C          0.11812840       0.45663000       0.94978000
   115  C          0.11812840       0.04337000       0.44978000
   116  C          0.88187160       0.54337000       0.05022000
   117  C          0.86100150       0.88644000       0.62582000
   118  C          0.13899850       0.38644000       0.87418000
   119  C          0.13899850       0.11356000       0.37418000
   120  C          0.86100150       0.61356000       0.12582000
   121  C          0.80496150       0.01546000       0.63952000
   122  C          0.19503850       0.51546000       0.86048000
   123  C          0.19503850      -0.01546000       0.36048000
   124  C          0.80496150       0.48454000       0.13952000
   125  C          0.77016150       0.21426000       0.57792000
   126  C          0.22983850       0.71426000       0.92208000
   127  C          0.22983850       0.78574000       0.42208000
   128  C          0.77016150       0.28574000       0.07792000
   129  C          0.79407160       0.28187000       0.50322000
   130  C          0.20592840       0.78187000      -0.00322000
   131  C          0.20592840       0.71813000       0.49678000
   132  C          0.79407160       0.21813000       0.00322000
   133  H          0.77256900       0.41350500       0.46237400
   134  H          0.22743100       0.91350500       0.03762600
   135  H          0.22743100       0.58649500       0.53762600
   136  H          0.77256900       0.08649500       0.96237400
   137  C          0.84690170       0.15877000       0.49092000
   138  C          0.15309830       0.65877000       0.00908000
   139  C          0.15309830       0.84123000       0.50908000
   140  C          0.84690170       0.34123000      -0.00908000
   141  H          0.86083100       0.20829100       0.44172600
   142  H          0.13916900       0.70829100       0.05827400
   143  H          0.13916900       0.79170900       0.55827400
   144  H          0.86083100       0.29170900       0.94172600
   145  N          0.68832130       0.67876000       0.47212180
   146  N          0.31167870       0.17876000       0.02787820
   147  N          0.31167870       0.32124000       0.52787820
   148  N          0.68832130       0.82124000       0.97212180
   149  S          0.59023400       0.56838190       0.53141600
   150  S          0.40976600       0.06838190       0.96858400
   151  S          0.40976600       0.43161810       0.46858400
   152  S          0.59023400       0.93161810       0.03141600
