data_YESBUW
_symmetry_space_group_name_H-M    'P1'
_symmetry_Int_Tables_number       1
loop_
_symmetry_equiv_pos_site_id
_symmetry_equiv_pos_as_xyz
1 x,y,z
_cell_length_a                   3.87907
_cell_length_b                   27.9161
_cell_length_c                   14.4263
_cell_angle_alpha                90.0
_cell_angle_beta                 93.08218
_cell_angle_gamma                90.0
loop_
_atom_site_label
_atom_site_type_symbol
_atom_site_fract_x
_atom_site_fract_y
_atom_site_fract_z
     1  S          0.73012000       0.84363400       0.76277700
     2  S          0.26988000       0.34363400       0.73722300
     3  S          0.26988000       0.15636600       0.23722300
     4  S          0.73012000       0.65636600       0.26277700
     5  N          0.48087000       0.81426100       0.60093190
     6  N          0.51913000       0.31426100       0.89906810
     7  N          0.51913000       0.18573900       0.39906810
     8  N          0.48087000       0.68573900       0.10093190
     9  C         -0.00573000       0.63094120       0.61932000
    10  C          0.00573000       0.13094120       0.88068000
    11  C          0.00573000       0.36905880       0.38068000
    12  C         -0.00573000       0.86905880       0.11932000
    13  C          0.86157000       0.66622120       0.67912000
    14  C          0.13843000       0.16622120       0.82088000
    15  C          0.13843000       0.33377880       0.32088000
    16  C          0.86157000       0.83377880       0.17912000
    17  C          0.81197000       0.71404120       0.64672000
    18  C          0.18803000       0.21404120       0.85328000
    19  C          0.18803000       0.28595880       0.35328000
    20  C          0.81197000       0.78595880       0.14672000
    21  C          0.62228000       0.79888130       0.68132000
    22  C          0.37772000       0.29888130       0.81868000
    23  C          0.37772000       0.20111870       0.31868000
    24  C          0.62228000       0.70111870       0.18132000
    25  C          0.08268000       0.64303130       0.52812000
    26  C          0.91732000       0.14303130       0.97188000
    27  C          0.91732000       0.35696870       0.47188000
    28  C          0.08268000       0.85696870       0.02812000
    29  C          0.68508000       0.74837130       0.70842000
    30  C          0.31492000       0.24837130       0.79158000
    31  C          0.31492000       0.25162870       0.29158000
    32  C          0.68508000       0.75162870       0.20842000
    33  C          0.03738000       0.69170130       0.49912000
    34  C         -0.03738000       0.19170130       0.00088000
    35  C         -0.03738000       0.30829870       0.50088000
    36  C          0.03738000       0.80829870      -0.00088000
    37  C          0.45128000       0.86380130       0.60372000
    38  C          0.54872000       0.36380130       0.89628000
    39  C          0.54872000       0.13619870       0.39628000
    40  C          0.45128000       0.63619870       0.10372000
    41  C          0.90579000       0.72554140       0.55432000
    42  C          0.09421000       0.22554140       0.94568000
    43  C          0.09421000       0.27445860       0.44568000
    44  C          0.90579000       0.77445860       0.05432000
    45  C          0.78178000       0.65338130       0.77052000
    46  C          0.21822000       0.15338130       0.72948000
    47  C          0.21822000       0.34661870       0.22948000
    48  C          0.78178000       0.84661870       0.27052000
    49  C          0.04008000       0.58328130       0.65092000
    50  C          0.95992000       0.08328130       0.84908000
    51  C          0.95992000       0.41671870       0.34908000
    52  C          0.04008000       0.91671870       0.15092000
    53  C          0.25601000       0.56129160       0.50213000
    54  C          0.74399000       0.06129160      -0.00213000
    55  C          0.74399000       0.43870840       0.49787000
    56  C          0.25601000       0.93870840       0.00213000
    57  C          0.57389000       0.88608140       0.68592000
    58  C          0.42611000       0.38608140       0.81408000
    59  C          0.42611000       0.11391860       0.31408000
    60  C          0.57389000       0.61391860       0.18592000
    61  C          0.21449000       0.60792140       0.47102000
    62  C          0.78551000       0.10792140       0.02898000
    63  C          0.78551000       0.39207860       0.52898000
    64  C          0.21449000       0.89207860       0.97102000
    65  C          0.61839000       0.73480150       0.79912000
    66  C          0.38161000       0.23480150       0.70088000
    67  C          0.38161000       0.26519850       0.20088000
    68  C          0.61839000       0.76519850       0.29912000
    69  C          0.66239000       0.68845150       0.82992000
    70  C          0.33761000       0.18845150       0.67008000
    71  C          0.33761000       0.31154850       0.17008000
    72  C          0.66239000       0.81154850       0.32992000
    73  C          0.40881200       0.96234170       0.62114000
    74  C          0.59118800       0.46234170       0.87886000
    75  C          0.59118800       0.03765830       0.37886000
    76  C          0.40881200       0.53765830       0.12114000
    77  C          0.82719000       0.60467140       0.79943000
    78  C          0.17281000       0.10467140       0.70057000
    79  C          0.17281000       0.39532860       0.20057000
    80  C          0.82719000       0.89532860       0.29943000
    81  C          0.16971000       0.54888150       0.59053000
    82  C          0.83029000       0.04888150       0.90947000
    83  C          0.83029000       0.45111850       0.40947000
    84  C          0.16971000       0.95111850       0.09053000
    85  C          0.95101000       0.57129150       0.74303000
    86  C          0.04899000       0.07129150       0.75697000
    87  C          0.04899000       0.42870850       0.25697000
    88  C          0.95101000       0.92870850       0.24303000
    89  C          0.30511000       0.89112160       0.53063000
    90  C          0.69489000       0.39112160       0.96937000
    91  C          0.69489000       0.10887840       0.46937000
    92  C          0.30511000       0.60887840       0.03063000
    93  C          0.55411200       0.93627170       0.69503000
    94  C          0.44588800       0.43627170       0.80497000
    95  C          0.44588800       0.06372830       0.30497000
    96  C          0.55411200       0.56372830       0.19503000
    97  C          0.29081100       0.93963170       0.54103000
    98  C          0.70918900       0.43963170       0.95897000
    99  C          0.70918900       0.06036830       0.45897000
   100  C          0.29081100       0.56036830       0.04103000
   101  H          0.22190000       0.87361400       0.47130000
   102  H          0.77810000       0.37361400       0.02870000
   103  H          0.77810000       0.12638600       0.52870000
   104  H          0.22190000       0.62638600       0.97130000
   105  H          0.18610000       0.95901500       0.48830000
   106  H          0.81390000       0.45901500       0.01170000
   107  H          0.81390000       0.04098500       0.51170000
   108  H          0.18610000       0.54098500       0.98830000
   109  H          0.41211000      -0.00258300       0.62530000
   110  H          0.58789000       0.49741700       0.87470000
   111  H          0.58789000       0.00258300       0.37470000
   112  H          0.41211000       0.50258300       0.12530000
   113  H          0.63310000       0.94821400       0.75230000
   114  H          0.36690000       0.44821400       0.74770000
   115  H          0.36690000       0.05178600       0.24770000
   116  H          0.63310000       0.55178600       0.25230000
   117  H          0.52280000       0.75921100       0.84020000
   118  H          0.47720000       0.25921100       0.65980000
   119  H          0.47720000       0.24078900       0.15980000
   120  H          0.52280000       0.74078900       0.34020000
   121  H          0.61580000       0.67951100       0.89420000
   122  H          0.38420000       0.17951100       0.60580000
   123  H          0.38420000       0.32048900       0.10580000
   124  H          0.61580000       0.82048900       0.39420000
   125  H          0.76390000       0.59701300       0.85820000
   126  H          0.23610000       0.09701300       0.64180000
   127  H          0.23610000       0.40298700       0.14180000
   128  H          0.76390000       0.90298700       0.35820000
   129  H         -0.01810000       0.53911300       0.76620000
   130  H          0.01810000       0.03911300       0.73380000
   131  H          0.01810000       0.46088700       0.23380000
   132  H         -0.01810000       0.96088700       0.26620000
   133  H          0.19590000       0.51851300       0.61520000
   134  H          0.80410000       0.01851300       0.88480000
   135  H          0.80410000       0.48148700       0.38480000
   136  H          0.19590000       0.98148700       0.11520000
   137  H          0.34190000       0.53651400       0.46120000
   138  H          0.65810000       0.03651400       0.03880000
   139  H          0.65810000       0.46348600       0.53880000
   140  H          0.34190000       0.96348600       0.96120000
   141  H          0.28180000       0.61561200       0.40820000
   142  H          0.71820000       0.11561200       0.09180000
   143  H          0.71820000       0.38438800       0.59180000
   144  H          0.28180000       0.88438800       0.90820000
   145  H          0.10470000       0.70021100       0.43720000
   146  H          0.89530000       0.20021100       0.06280000
   147  H          0.89530000       0.29978900       0.56280000
   148  H          0.10470000       0.79978900       0.93720000
   149  H          0.87690000       0.75651200       0.53120000
   150  H          0.12310000       0.25651200       0.96880000
   151  H          0.12310000       0.24348800       0.46880000
   152  H          0.87690000       0.74348800       0.03120000
