data_YESBUW03
_symmetry_space_group_name_H-M    'P1'
_symmetry_Int_Tables_number       1
loop_
_symmetry_equiv_pos_site_id
_symmetry_equiv_pos_as_xyz
1 x,y,z
_cell_length_a                   7.91749
_cell_length_b                   9.02211
_cell_length_c                   12.062613
_cell_angle_alpha                78.7965
_cell_angle_beta                 70.9775
_cell_angle_gamma                84.9245
loop_
_atom_site_label
_atom_site_type_symbol
_atom_site_fract_x
_atom_site_fract_y
_atom_site_fract_z
     1  S          0.23676170      -0.00435150       0.22669110
     2  S          0.76323830       0.00435150       0.77330890
     3  N          0.37685000       0.05904000       0.37743000
     4  N          0.62315000       0.94096000       0.62257000
     5  C          0.64325000       0.45694000       0.11943000
     6  C          0.35675000       0.54306000       0.88057000
     7  C          0.68745000       0.59195000       0.14613000
     8  C          0.31255000       0.40805000       0.85387000
     9  C          0.60985000       0.62645000       0.26264000
    10  C          0.39015000       0.37355000       0.73736000
    11  C          0.48755000       0.21865000       0.17933000
    12  C          0.51245000       0.78135000       0.82067000
    13  C          0.52535000       0.35285000       0.20853000
    14  C          0.47465000       0.64715000       0.79147000
    15  C          0.71845000       0.42715000       0.00023000
    16  C          0.28155000       0.57285000      -0.00023000
    17  C          0.37675000       0.10045000       0.26824000
    18  C          0.62325000       0.89955000       0.73176000
    19  C          0.80945000       0.69425000       0.05754000
    20  C          0.19055000       0.30575000       0.94246000
    21  C          0.67326000       0.29675000       0.97496000
    22  C          0.32674000       0.70325000       0.02504000
    23  H          0.71892700       0.27737500       0.89755200
    24  H          0.28107300       0.72262500       0.10244800
    25  C          0.44475000       0.39435000       0.32403000
    26  C          0.55525000       0.60565000       0.67597000
    27  H          0.36335700       0.33023800       0.38331100
    28  H          0.63664300       0.66976200       0.61668900
    29  C          0.26705000       0.93935000       0.43484000
    30  C          0.73295000       0.06065000       0.56516000
    31  C          0.48505000       0.52475000       0.34804000
    32  C          0.51495000       0.47525000       0.65196000
    33  H          0.42886900       0.54849900       0.42334200
    34  H          0.57113100       0.45150100       0.57665800
    35  C          0.17675000       0.88925000       0.36834000
    36  C          0.82325000       0.11075000       0.63166000
    37  C          0.83826000       0.53345000       0.91316000
    38  C          0.16174000       0.46655000       0.08684000
    39  H          0.88650200       0.51500700       0.83567200
    40  H          0.11349800       0.48499300       0.16432800
    41  C          0.65866000       0.75875000       0.28744000
    42  C          0.34134000       0.24125000       0.71256000
    43  H          0.60952000       0.78188300       0.36351100
    44  H          0.39048000       0.21811700       0.63648900
    45  C          0.56236000       0.19475000       0.06114000
    46  C          0.43764000       0.80525000       0.93886000
    47  H          0.53581500       0.10710200       0.04092200
    48  H          0.46418500       0.89289800       0.95907800
    49  C          0.88326000       0.65835000       0.93966000
    50  C          0.11674000       0.34165000       0.06034000
    51  H          0.96372900       0.72338000       0.88078200
    52  H          0.03627100       0.27662000       0.11921800
    53  C          0.85096000       0.82365000       0.08735000
    54  C          0.14904000       0.17635000       0.91265000
    55  H          0.92974600       0.89095600       0.02947700
    56  H          0.07025400       0.10904400       0.97052300
    57  C          0.13697000       0.74254000       0.59774000
    58  C          0.86303000       0.25746000       0.40226000
    59  H          0.12406500       0.69071900       0.67446600
    60  H          0.87593500       0.30928100       0.32553400
    61  C          0.04526000       0.69574000       0.52945000
    62  C          0.95474000       0.30426000       0.47055000
    63  H          0.96871300       0.61506200       0.56297200
    64  H          0.03128700       0.38493800       0.43702800
    65  C          0.24506000       0.86394000       0.55194000
    66  C          0.75494000       0.13606000       0.44806000
    67  H          0.30367200       0.89666200       0.59781000
    68  H          0.69632800       0.10333800       0.40219000
    69  C          0.06506000       0.76514000       0.41475000
    70  C          0.93494000       0.23486000       0.58525000
    71  H          0.00641500       0.73131300       0.36933000
    72  H         -0.00641500       0.26868700       0.63067000
    73  C          0.77827000       0.85486000       0.20065000
    74  C          0.22173000       0.14514000       0.79935000
    75  H          0.81021000       0.94169800       0.21870700
    76  H          0.18979000       0.05830200       0.78129300
