data_YEWYAD02
_symmetry_space_group_name_H-M    'P1'
_symmetry_Int_Tables_number       1
loop_
_symmetry_equiv_pos_site_id
_symmetry_equiv_pos_as_xyz
1 x,y,z
_cell_length_a                   25.79366
_cell_length_b                   4.2901716
_cell_length_c                   20.67917
_cell_angle_alpha                90.0
_cell_angle_beta                 92.1703
_cell_angle_gamma                90.0
loop_
_atom_site_label
_atom_site_type_symbol
_atom_site_fract_x
_atom_site_fract_y
_atom_site_fract_z
     1  Cl         0.60373400       0.64502000       0.40088400
     2  Cl         0.60373400       0.35498000       0.90088400
     3  Cl         0.10373400       0.14502000       0.40088400
     4  Cl         0.10373400       0.85498000       0.90088400
     5  N          0.77117110       0.17436000       0.57908130
     6  N          0.77117110       0.82564000       0.07908130
     7  N          0.27117110       0.67436000       0.57908130
     8  N          0.27117110       0.32564000       0.07908130
     9  C          0.63895130       0.31188000       0.50530160
    10  C          0.63895130       0.68812000       0.00530160
    11  C          0.13895130       0.81188000       0.50530160
    12  C          0.13895130       0.18812000       0.00530160
    13  H          0.60401400       0.24814100       0.50998100
    14  H          0.60401400       0.75185900       0.00998100
    15  H          0.10401400       0.74814100       0.50998100
    16  H          0.10401400       0.25185900       0.00998100
    17  C          0.65161130       0.50908000       0.45584150
    18  C          0.65161130       0.49092000       0.95584150
    19  C          0.15161130       0.00908000       0.45584150
    20  C          0.15161130      -0.00908000       0.95584150
    21  C          0.77519120       0.22748000       0.63938150
    22  C          0.77519120       0.77252000       0.13938150
    23  C          0.27519120       0.72748000       0.63938150
    24  C          0.27519120       0.27252000       0.13938150
    25  N          0.81892100       0.18827000       0.73883130
    26  N          0.81892100       0.81173000       0.23883130
    27  N          0.31892100       0.68827000       0.73883130
    28  N          0.31892100       0.31173000       0.23883130
    29  H          0.84124800       0.13893200       0.77041300
    30  H          0.84124800       0.86106800       0.27041300
    31  H          0.34124800       0.63893200       0.77041300
    32  H          0.34124800       0.36106800       0.27041300
    33  O          0.85413900       0.91574000       0.65486110
    34  O          0.85413900       0.08426000       0.15486110
    35  O          0.35413900       0.41574000       0.65486110
    36  O          0.35413900       0.58426000       0.15486110
    37  C          0.70203130       0.60388000       0.44770160
    38  C          0.70203130       0.39612000       0.94770160
    39  C          0.20203130       0.10388000       0.44770160
    40  C          0.20203130       0.89612000       0.94770160
    41  H          0.70991600       0.74433000       0.41395400
    42  H          0.70991600       0.25567000       0.91395400
    43  H          0.20991600       0.24433000       0.41395400
    44  H          0.20991600       0.75567000       0.91395400
    45  C          0.72921130       0.29558000       0.54018150
    46  C          0.72921130       0.70442000       0.04018150
    47  C          0.22921130       0.79558000       0.54018150
    48  C          0.22921130       0.20442000       0.04018150
    49  C          0.74103130       0.49178000       0.48933150
    50  C          0.74103130       0.50822000       0.98933150
    51  C          0.24103130      -0.00822000       0.48933150
    52  C          0.24103130       0.00822000       0.98933150
    53  H          0.77604700       0.54924900       0.48308500
    54  H          0.77604700       0.45075100       0.98308500
    55  H          0.27604700       0.04924900       0.48308500
    56  H          0.27604700       0.95075100       0.98308500
    57  C          0.74726120       0.40917000       0.68699150
    58  C          0.74726120       0.59083000       0.18699150
    59  C          0.24726120       0.90917000       0.68699150
    60  C          0.24726120       0.09083000       0.18699150
    61  C          0.82158120       0.08578000       0.67720150
    62  C          0.82158120       0.91422000       0.17720150
    63  C          0.32158120       0.58578000       0.67720150
    64  C          0.32158120       0.41422000       0.17720150
    65  C          0.71697150       0.71468000       0.79681180
    66  C          0.71697150       0.28532000       0.29681180
    67  C          0.21697150       0.21468000       0.79681180
    68  C          0.21697150       0.78532000       0.29681180
    69  H          0.70616400       0.82200100       0.83414500
    70  H          0.70616400       0.17799900       0.33414500
    71  H          0.20616400       0.32200100       0.83414500
    72  H          0.20616400       0.67799900       0.33414500
    73  C          0.68789150       0.74419000       0.73970180
    74  C          0.68789150       0.25581000       0.23970180
    75  C          0.18789150       0.24419000       0.73970180
    76  C          0.18789150       0.75581000       0.23970180
    77  H          0.65736900       0.86827800       0.73862700
    78  H          0.65736900       0.13172200       0.23862700
    79  H          0.15736900       0.36827800       0.73862700
    80  H          0.15736900       0.63172200       0.23862700
    81  C          0.67761130       0.20739000       0.54811180
    82  C          0.67761130       0.79261000       0.04811180
    83  C          0.17761130       0.70739000       0.54811180
    84  C          0.17761130       0.29261000       0.04811180
    85  H          0.66910200       0.07525100       0.58302500
    86  H          0.66910200       0.92474900       0.08302500
    87  H          0.16910200       0.57525100       0.58302500
    88  H          0.16910200       0.42474900       0.08302500
    89  C          0.77581120       0.38358000       0.74575150
    90  C          0.77581120       0.61642000       0.24575150
    91  C          0.27581120       0.88358000       0.74575150
    92  C          0.27581120       0.11642000       0.24575150
    93  C          0.70272130       0.59488000       0.68397170
    94  C          0.70272130       0.40512000       0.18397170
    95  C          0.20272130       0.09488000       0.68397170
    96  C          0.20272130       0.90512000       0.18397170
    97  H          0.68303100       0.61814300       0.64450900
    98  H          0.68303100       0.38185700       0.14450900
    99  H          0.18303100       0.11814300       0.64450900
   100  H          0.18303100       0.88185700       0.14450900
   101  C          0.76162140       0.53248000       0.80147160
   102  C          0.76162140       0.46752000       0.30147160
   103  C          0.26162140       0.03248000       0.80147160
   104  C          0.26162140      -0.03248000       0.30147160
   105  H          0.78129800       0.51176500       0.84100400
   106  H          0.78129800       0.48823500       0.34100400
   107  H          0.28129800       0.01176500       0.84100400
   108  H          0.28129800      -0.01176500       0.34100400
   109  Cl         0.57007400       0.75058000       0.18270400
   110  Cl         0.57007400       0.24942000       0.68270400
   111  Cl         0.07007400       0.25058000       0.18270400
   112  Cl         0.07007400       0.74942000       0.68270400
   113  O          0.32496900       0.56476000       0.41309110
   114  O          0.32496900       0.43524000       0.91309110
   115  O          0.82496900       0.06476000       0.41309110
   116  O          0.82496900       0.93524000       0.91309110
   117  C          0.40274130       0.23778000       0.40417150
   118  C          0.40274130       0.76222000       0.90417150
   119  C          0.90274130       0.73778000       0.40417150
   120  C          0.90274130       0.26222000       0.90417150
   121  C          0.49661130       0.21718000       0.31928150
   122  C          0.49661130       0.78282000       0.81928150
   123  C         -0.00338870       0.71718000       0.31928150
   124  C         -0.00338870       0.28282000       0.81928150
   125  H          0.50526500       0.35938900       0.35319600
   126  H          0.50526500       0.64061100       0.85319600
   127  H          0.00526500       0.85938900       0.35319600
   128  H          0.00526500       0.14061100       0.85319600
   129  C          0.53514130       0.10298000       0.28085160
   130  C          0.53514130       0.89702000       0.78085160
   131  C          0.03514130       0.60298000       0.28085160
   132  C          0.03514130       0.39702000       0.78085160
   133  H          0.57014900       0.16699900       0.28796700
   134  H          0.57014900       0.83300100       0.78796700
   135  H          0.07014900       0.66699900       0.28796700
   136  H          0.07014900       0.33300100       0.78796700
   137  N          0.40403100       0.25856000       0.34241120
   138  N          0.40403100       0.74144000       0.84241120
   139  N          0.90403100       0.75856000       0.34241120
   140  N          0.90403100       0.24144000       0.84241120
   141  C          0.49558140       0.76362000       0.51427180
   142  C          0.49558140       0.23638000       0.01427180
   143  C         -0.00441860       0.26362000       0.51427180
   144  C         -0.00441860       0.73638000       0.01427180
   145  H          0.52587200       0.63748800       0.51553100
   146  H          0.52587200       0.36251200       0.01553100
   147  H          0.02587200       0.13748800       0.51553100
   148  H          0.02587200       0.86251200       0.01553100
   149  C          0.43323120       0.07668000       0.45531150
   150  C          0.43323120       0.92332000       0.95531150
   151  C          0.93323120       0.57668000       0.45531150
   152  C          0.93323120       0.42332000       0.95531150
   153  N          0.36499100       0.32816000       0.50247130
   154  N          0.36499100       0.67184000       0.00247130
   155  N          0.86499100       0.82816000       0.50247130
   156  N          0.86499100       0.17184000       0.00247130
   157  H          0.34469500       0.39306300       0.53296700
   158  H          0.34469500       0.60693700       0.03296700
   159  H          0.84469500       0.89306300       0.53296700
   160  H          0.84469500       0.10693700       0.03296700
   161  C          0.35853120       0.40268000       0.43829150
   162  C          0.35853120       0.59732000       0.93829150
   163  C          0.85853120       0.90268000       0.43829150
   164  C          0.85853120       0.09732000       0.93829150
   165  C          0.47151130       0.79792000       0.22082150
   166  C          0.47151130       0.20208000       0.72082150
   167  C          0.97151130       0.29792000       0.22082150
   168  C          0.97151130       0.70208000       0.72082150
   169  H          0.46326300       0.65066900       0.18770700
   170  H          0.46326300       0.34933100       0.68770700
   171  H          0.96326300       0.15066900       0.18770700
   172  H          0.96326300       0.84933100       0.68770700
   173  C          0.52197130       0.89482000       0.23212150
   174  C          0.52197130       0.10518000       0.73212150
   175  C          0.02197130       0.39482000       0.23212150
   176  C          0.02197130       0.60518000       0.73212150
   177  C          0.44530120       0.12458000       0.30850140
   178  C          0.44530120       0.87542000       0.80850140
   179  C          0.94530120       0.62458000       0.30850140
   180  C          0.94530120       0.37542000       0.80850140
   181  C          0.47726130       0.89062000       0.45581160
   182  C          0.47726130       0.10938000       0.95581160
   183  C          0.97726130       0.39062000       0.45581160
   184  C          0.97726130       0.60938000       0.95581160
   185  H          0.49460100       0.85080600       0.41694700
   186  H          0.49460100       0.14919400       0.91694700
   187  H         -0.00539900       0.35080600       0.41694700
   188  H         -0.00539900       0.64919400       0.91694700
   189  C          0.46997140       0.82022000       0.57015170
   190  C          0.46997140       0.17978000       0.07015170
   191  C          0.96997140       0.32022000       0.57015170
   192  C          0.96997140       0.67978000       0.07015170
   193  H          0.48309900       0.73148000       0.60953700
   194  H          0.48309900       0.26852000       0.10953700
   195  H          0.98309900       0.23148000       0.60953700
   196  H          0.98309900       0.76852000       0.10953700
   197  C          0.42555140       0.00308000       0.57103150
   198  C          0.42555140      -0.00308000       0.07103150
   199  C          0.92555140       0.50308000       0.57103150
   200  C          0.92555140       0.49692000       0.07103150
   201  H          0.40774200       0.03627900       0.60980900
   202  H          0.40774200       0.96372100       0.10980900
   203  H          0.90774200       0.53627900       0.60980900
   204  H          0.90774200       0.46372100       0.10980900
   205  C          0.40839120       0.13418000       0.51314150
   206  C          0.40839120       0.86582000       0.01314150
   207  C          0.90839120       0.63418000       0.51314150
   208  C          0.90839120       0.36582000       0.01314150
   209  C          0.43298120       0.91852000       0.25844150
   210  C          0.43298120       0.08148000       0.75844150
   211  C          0.93298120       0.41852000       0.25844150
   212  C          0.93298120       0.58148000       0.75844150
   213  H          0.39786300       0.85991200       0.24992300
   214  H          0.39786300       0.14008800       0.74992300
   215  H          0.89786300       0.35991200       0.24992300
   216  H          0.89786300       0.64008800       0.74992300
