data_YEWYAD01
_symmetry_space_group_name_H-M    'P1'
_symmetry_Int_Tables_number       1
loop_
_symmetry_equiv_pos_site_id
_symmetry_equiv_pos_as_xyz
1 x,y,z
_cell_length_a                   20.71818
_cell_length_b                   4.48063
_cell_length_c                   25.555211
_cell_angle_alpha                90.0
_cell_angle_beta                 90.0
_cell_angle_gamma                90.0
loop_
_atom_site_label
_atom_site_type_symbol
_atom_site_fract_x
_atom_site_fract_y
_atom_site_fract_z
     1  Cl         0.48831300       0.47166000       0.14892400
     2  Cl         0.51168700       0.52834000       0.64892400
     3  Cl         0.01168700      -0.02834000       0.64892400
     4  Cl         0.98831300       0.02834000       0.14892400
     5  O          0.72422830       0.68789000       0.39880850
     6  O          0.27577170       0.31211000       0.89880850
     7  O          0.77577170       0.18789000       0.89880850
     8  O          0.22422830       0.81211000       0.39880850
     9  N          0.80951830       0.94381000       0.36241850
    10  N          0.19048170       0.05619000       0.86241850
    11  N          0.69048170       0.44381000       0.86241850
    12  N          0.30951830       0.55619000       0.36241850
    13  H          0.83940200       0.89266000       0.38398000
    14  H          0.16059800       0.10734000       0.88398000
    15  H          0.66059800       0.39266000       0.88398000
    16  H          0.33940200       0.60734000       0.38398000
    17  N          0.65137830       0.95482000       0.31675850
    18  N          0.34862170       0.04518000       0.81675850
    19  N          0.84862170       0.45482000       0.81675850
    20  N          0.15137830       0.54518000       0.31675850
    21  C          0.81908000       0.13429000       0.31927820
    22  C          0.18092000       0.86571000       0.81927820
    23  C          0.68092000       0.63429000       0.81927820
    24  C          0.31908000       0.36571000       0.31927820
    25  C          0.87528000       0.27358800       0.30448000
    26  C          0.12472000       0.72641200       0.80448000
    27  C          0.62472000       0.77358800       0.80448000
    28  C          0.37528000       0.22641200       0.30448000
    29  H          0.91316700       0.24939000       0.32359500
    30  H          0.08683300       0.75061000       0.82359500
    31  H          0.58683300       0.74939000       0.82359500
    32  H          0.41316700       0.25061000       0.32359500
    33  C          0.87367000       0.45088800       0.26018000
    34  C          0.12633000       0.54911200       0.76018000
    35  C          0.62633000       0.95088800       0.76018000
    36  C          0.37367000       0.04911200       0.26018000
    37  H          0.91130800       0.54361100       0.24887500
    38  H          0.08869200       0.45638900       0.74887500
    39  H          0.58869200       0.04361100       0.74887500
    40  H          0.41130800       0.95638900       0.24887500
    41  C          0.81737000       0.49258900       0.23277000
    42  C          0.18263000       0.50741100       0.73277000
    43  C          0.68263000      -0.00741100       0.73277000
    44  C          0.31737000       0.00741100       0.23277000
    45  H          0.81749200       0.61538900       0.20344900
    46  H          0.18250800       0.38461100       0.70344900
    47  H          0.68250800       0.11538900       0.70344900
    48  H          0.31749200       0.88461100       0.20344900
    49  C          0.76048000       0.35558900       0.24788000
    50  C          0.23952000       0.64441100       0.74788000
    51  C          0.73952000       0.85558900       0.74788000
    52  C          0.26048000       0.14441100       0.24788000
    53  H          0.72267900       0.38457700       0.22887900
    54  H          0.27732100       0.61542300       0.72887900
    55  H          0.77732100       0.88457700       0.72887900
    56  H          0.22267900       0.11542300       0.22887900
    57  C          0.76094810       0.17339000       0.29205820
    58  C          0.23905190       0.82661000       0.79205820
    59  C          0.73905190       0.67339000       0.79205820
    60  C          0.26094810       0.32661000       0.29205820
    61  C          0.71188000      -0.00099000       0.32063830
    62  C          0.28812000       0.00099000       0.82063830
    63  C          0.78812000       0.49901000       0.82063830
    64  C          0.21188000       0.50099000       0.32063830
    65  C          0.74748000       0.85168700       0.36569810
    66  C          0.25252000       0.14831300       0.86569810
    67  C          0.75252000       0.35168700       0.86569810
    68  C          0.24748000       0.64831300       0.36569810
    69  C          0.61472810       0.08498900       0.27525830
    70  C          0.38527190       0.91501100       0.77525830
    71  C          0.88527190       0.58498900       0.77525830
    72  C          0.11472810       0.41501100       0.27525830
    73  C          0.62388000       0.00168900       0.22338000
    74  C          0.37612000      -0.00168900       0.72338000
    75  C          0.87612000       0.50168900       0.72338000
    76  C          0.12388000       0.49831100       0.22338000
    77  H          0.65606600       0.86566200       0.21467200
    78  H          0.34393400       0.13433800       0.71467200
    79  H          0.84393400       0.36566200       0.71467200
    80  H          0.15606600       0.63433800       0.21467200
    81  C          0.58488000       0.12248800       0.18461810
    82  C          0.41512000       0.87751200       0.68461810
    83  C          0.91512000       0.62248800       0.68461810
    84  C          0.08488000       0.37751200       0.18461810
    85  H          0.59113900       0.06918600       0.14981400
    86  H          0.40886100       0.93081400       0.64981400
    87  H          0.90886100       0.56918600       0.64981400
    88  H          0.09113900       0.43081400       0.14981400
    89  C          0.53718000       0.32018800       0.19781810
    90  C          0.46282000       0.67981200       0.69781810
    91  C          0.96282000       0.82018800       0.69781810
    92  C          0.03718000       0.17981200       0.19781810
    93  C          0.52728000       0.40058800       0.24918000
    94  C          0.47272000       0.59941200       0.74918000
    95  C          0.97272000       0.90058800       0.74918000
    96  C          0.02728000       0.09941200       0.24918000
    97  H          0.49515700       0.53671200       0.25778900
    98  H          0.50484300       0.46328800       0.75778900
    99  H          0.00484300       0.03671200       0.75778900
   100  H         -0.00484300       0.96328800       0.25778900
   101  C          0.56558000       0.27748900       0.28778000
   102  C          0.43442000       0.72251100       0.78778000
   103  C          0.93442000       0.77748900       0.78778000
   104  C          0.06558000       0.22251100       0.28778000
   105  H          0.55802600       0.32557900       0.32269600
   106  H          0.44197400       0.67442100       0.82269600
   107  H          0.94197400       0.82557900       0.82269600
   108  H          0.05802600       0.17442100       0.32269600
   109  Cl         0.24283300      -0.00703000       0.61622400
   110  Cl         0.75716700       0.00703000       0.11622400
   111  Cl         0.25716700       0.49297000       0.11622400
   112  Cl         0.74283300       0.50703000       0.61622400
   113  O          0.48197830       0.83109000       0.37332850
   114  O          0.51802170       0.16891000       0.87332850
   115  O          0.01802170       0.33109000       0.87332850
   116  O          0.98197830       0.66891000       0.37332850
   117  N          0.56965830       0.60311000       0.41197860
   118  N          0.43034170       0.39689000       0.91197860
   119  N          0.93034170       0.10311000       0.91197860
   120  N          0.06965830       0.89689000       0.41197860
   121  H          0.60008700       0.67281100       0.39261300
   122  H          0.39991300       0.32718900       0.89261300
   123  H          0.89991300       0.17281100       0.89261300
   124  H          0.10008700       0.82718900       0.39261300
   125  N          0.40850840       0.51492000       0.45112850
   126  N          0.59149160       0.48508000       0.95112850
   127  N          0.09149160       0.01492000       0.95112850
   128  N          0.90850840      -0.01492000       0.45112850
   129  C          0.57908000       0.40569000       0.45378820
   130  C          0.42092000       0.59431000       0.95378820
   131  C          0.92092000       0.90569000       0.95378820
   132  C          0.07908000       0.09431000       0.45378820
   133  C          0.63608000       0.27758900       0.47008000
   134  C          0.36392000       0.72241100       0.97008000
   135  C          0.86392000       0.77758900       0.97008000
   136  C          0.13608000       0.22241100       0.47008000
   137  H          0.67468700       0.31598200       0.45276000
   138  H          0.32531300       0.68401800       0.95276000
   139  H          0.82531300       0.81598200       0.95276000
   140  H          0.17468700       0.18401800       0.45276000
   141  C          0.63428000       0.08948800       0.51328000
   142  C          0.36572000       0.91051200       0.01328000
   143  C          0.86572000       0.58948800       0.01328000
   144  C          0.13428000       0.41051200       0.51328000
   145  H          0.67255800       0.00618800       0.52555200
   146  H          0.32744200      -0.00618800       0.02555200
   147  H          0.82744200       0.50618800       0.02555200
   148  H          0.17255800       0.49381200       0.52555200
   149  C          0.57708000       0.02308900       0.53848000
   150  C          0.42292000      -0.02308900       0.03848000
   151  C          0.92292000       0.52308900       0.03848000
   152  C          0.07708000       0.47691100       0.53848000
   153  H          0.57724800       0.89549700       0.56725000
   154  H          0.42275200       0.10450300       0.06725000
   155  H          0.92275200       0.39549700       0.06725000
   156  H          0.07724800       0.60450300       0.56725000
   157  C          0.51968000       0.14558900       0.52125810
   158  C          0.48032000       0.85441100       0.02125810
   159  C          0.98032000       0.64558900       0.02125810
   160  C          0.01968000       0.35441100       0.52125810
   161  H          0.48103300       0.09893900       0.53786300
   162  H          0.51896700       0.90106100       0.03786300
   163  H          0.01896700       0.59893900       0.03786300
   164  H          0.98103300       0.40106100       0.53786300
   165  C          0.52039820       0.33969000       0.47871830
   166  C          0.47960180       0.66031000       0.97871830
   167  C          0.97960180       0.83969000       0.97871830
   168  C          0.02039820       0.16031000       0.47871830
   169  C          0.47048000       0.50239000       0.44903840
   170  C          0.52952000       0.49761000       0.94903840
   171  C          0.02952000       0.00239000       0.94903840
   172  C          0.97048000      -0.00239000       0.44903840
   173  C          0.50558000       0.67108800       0.40598820
   174  C          0.49442000       0.32891200       0.90598820
   175  C         -0.00558000       0.17108800       0.90598820
   176  C          0.00558000       0.82891200       0.40598820
   177  C          0.37305810       0.37619000       0.49174830
   178  C          0.62694190       0.62381000       0.99174830
   179  C          0.12694190       0.87619000       0.99174830
   180  C          0.87305810       0.12381000       0.49174830
   181  C          0.32638000       0.16708900       0.47909810
   182  C          0.67362000       0.83291100       0.97909810
   183  C          0.17362000       0.66708900       0.97909810
   184  C          0.82638000       0.33291100       0.47909810
   185  H          0.32127000       0.10891300       0.44441500
   186  H          0.67873000       0.89108700       0.94441500
   187  H          0.17873000       0.60891300       0.94441500
   188  H          0.82127000       0.39108700       0.44441500
   189  C          0.28748000       0.04398900       0.51708000
   190  C          0.71252000       0.95601100       0.01708000
   191  C          0.21252000       0.54398900       0.01708000
   192  C          0.78748000       0.45601100       0.51708000
   193  H          0.25764500       0.89725500       0.50842700
   194  H          0.74235500       0.10274500       0.00842700
   195  H          0.24235500       0.39725500       0.00842700
   196  H          0.75764500       0.60274500       0.50842700
   197  C          0.29338000       0.14048800       0.56819810
   198  C          0.70662000       0.85951200       0.06819810
   199  C          0.20662000       0.64048800       0.06819810
   200  C          0.79338000       0.35951200       0.56819810
   201  C          0.33868000       0.35278900       0.58178820
   202  C          0.66132000       0.64721100       0.08178820
   203  C          0.16132000       0.85278900       0.08178820
   204  C          0.83868000       0.14721100       0.58178820
   205  H          0.34221000       0.41620300       0.61632500
   206  H          0.65779000       0.58379700       0.11632500
   207  H          0.15779000       0.91620300       0.11632500
   208  H          0.84221000       0.08379700       0.61632500
   209  C          0.37858000       0.47028900       0.54385810
   210  C          0.62142000       0.52971100       0.04385810
   211  C          0.12142000      -0.02971100       0.04385810
   212  C          0.87858000       0.02971100       0.54385810
   213  H          0.40928500       0.61267200       0.55288600
   214  H          0.59071500       0.38732800       0.05288600
   215  H          0.09071500       0.11267200       0.05288600
   216  H          0.90928500       0.88732800       0.55288600
