data_YEWYAD
_symmetry_space_group_name_H-M    'P1'
_symmetry_Int_Tables_number       1
loop_
_symmetry_equiv_pos_site_id
_symmetry_equiv_pos_as_xyz
1 x,y,z
_cell_length_a                   5.43593
_cell_length_b                   25.828112
_cell_length_c                   8.49345
_cell_angle_alpha                90.0
_cell_angle_beta                 98.9025
_cell_angle_gamma                90.0
loop_
_atom_site_label
_atom_site_type_symbol
_atom_site_fract_x
_atom_site_fract_y
_atom_site_fract_z
     1  Cl         0.24114110       0.79506200       0.70583800
     2  Cl         0.75885890       0.29506200       0.79416200
     3  Cl         0.75885890       0.20493800       0.29416200
     4  Cl         0.24114110       0.70493800       0.20583800
     5  O          0.20303000       0.53529500       0.66323160
     6  O          0.79697000       0.03529500       0.83676840
     7  O          0.79697000       0.46470500       0.33676840
     8  O          0.20303000       0.96470500       0.16323160
     9  N          0.21763000       0.53257600       0.39396190
    10  N          0.78237000       0.03257600       0.10603810
    11  N          0.78237000       0.46742400       0.60603810
    12  N          0.21763000       0.96742400       0.89396190
    13  H          0.09980000       0.51070000       0.36560000
    14  H          0.90020000       0.01070000       0.13440000
    15  H          0.90020000       0.48930000       0.63440000
    16  H          0.09980000       0.98930000       0.86560000
    17  N          0.59623000       0.60998600       0.66766180
    18  N          0.40377000       0.10998600       0.83233820
    19  N          0.40377000       0.39001400       0.33233820
    20  N          0.59623000       0.89001400       0.16766180
    21  C          0.29073000       0.54844700       0.54572000
    22  C          0.70927000       0.04844700       0.95428000
    23  C          0.70927000       0.45155300       0.45428000
    24  C          0.29073000       0.95155300       0.04572000
    25  C          0.50003000       0.58767700       0.53972000
    26  C          0.49997000       0.08767700       0.96028000
    27  C          0.49997000       0.41232300       0.46028000
    28  C          0.50003000       0.91232300       0.03972000
    29  C          0.53403000       0.58983700       0.37162000
    30  C          0.46597000       0.08983700       0.12838000
    31  C          0.46597000       0.41016300       0.62838000
    32  C          0.53403000       0.91016300       0.87162000
    33  C          0.35803000       0.55625700       0.28852000
    34  C          0.64197000       0.05625700       0.21148000
    35  C          0.64197000       0.44374300       0.71148000
    36  C          0.35803000       0.94374300       0.78852000
    37  C          0.33804000       0.54870800       0.12642000
    38  C          0.66196000       0.04870800       0.37358000
    39  C          0.66196000       0.45129200       0.87358000
    40  C          0.33804000       0.95129200       0.62642000
    41  H          0.21680000       0.52700000       0.07240000
    42  H          0.78320000       0.02700000       0.42760000
    43  H          0.78320000       0.47300000       0.92760000
    44  H          0.21680000       0.97300000       0.57240000
    45  C          0.50524000       0.57467800       0.04693000
    46  C          0.49476000       0.07467800       0.45307000
    47  C          0.49476000       0.42532200       0.95307000
    48  C          0.50524000       0.92532200       0.54693000
    49  H          0.49550000       0.57040000       0.93740000
    50  H          0.50450000       0.07040000       0.56260000
    51  H          0.50450000       0.42960000       0.06260000
    52  H          0.49550000       0.92960000       0.43740000
    53  C          0.68564000       0.60664800       0.12702000
    54  C          0.31436000       0.10664800       0.37298000
    55  C          0.31436000       0.39335200       0.87298000
    56  C          0.68564000       0.89335200       0.62702000
    57  H          0.79790000       0.62290000       0.07110000
    58  H          0.20210000       0.12290000       0.42890000
    59  H          0.20210000       0.37710000       0.92890000
    60  H          0.79790000       0.87710000       0.57110000
    61  C          0.70234000       0.61497700       0.28972000
    62  C          0.29766000       0.11497700       0.21028000
    63  C          0.29766000       0.38502300       0.71028000
    64  C          0.70234000       0.88502300       0.78972000
    65  H          0.82320000       0.63690000       0.34290000
    66  H          0.17680000       0.13690000       0.15710000
    67  H          0.17680000       0.36310000       0.65710000
    68  H          0.82320000       0.86310000       0.84290000
    69  C          0.75913000       0.65271700       0.66592000
    70  C          0.24087000       0.15271700       0.83408000
    71  C          0.24087000       0.34728300       0.33408000
    72  C          0.75913000       0.84728300       0.16592000
    73  C         -0.00766000       0.65180800       0.75972000
    74  C          0.00766000       0.15180800       0.74028000
    75  C          0.00766000       0.34819200       0.24028000
    76  C         -0.00766000       0.84819200       0.25972000
    77  H          0.04760000       0.62200000       0.81580000
    78  H          0.95240000       0.12200000       0.68420000
    79  H          0.95240000       0.37800000       0.18420000
    80  H          0.04760000       0.87800000       0.31580000
    81  C          0.14174000       0.69530800       0.76942000
    82  C          0.85826000       0.19530800       0.73058000
    83  C          0.85826000       0.30469200       0.23058000
    84  C          0.14174000       0.80469200       0.26942000
    85  H          0.29930000       0.69470000       0.83030000
    86  H          0.70070000       0.19470000       0.66970000
    87  H          0.70070000       0.30530000       0.16970000
    88  H          0.29930000       0.80530000       0.33030000
    89  C          0.05704000       0.73953800       0.68872000
    90  C          0.94296000       0.23953800       0.81128000
    91  C          0.94296000       0.26046200       0.31128000
    92  C          0.05704000       0.76046200       0.18872000
    93  C          0.82694000       0.74125800       0.59573000
    94  C          0.17306000       0.24125800       0.90427000
    95  C          0.17306000       0.25874200       0.40427000
    96  C          0.82694000       0.75874200       0.09573000
    97  H          0.77200000       0.77130000       0.54100000
    98  H          0.22800000       0.27130000       0.95900000
    99  H          0.22800000       0.22870000       0.45900000
   100  H          0.77200000       0.72870000       0.04100000
   101  C          0.67824000       0.69765800       0.58463000
   102  C          0.32176000       0.19765800       0.91537000
   103  C          0.32176000       0.30234200       0.41537000
   104  C          0.67824000       0.80234200       0.08463000
   105  H          0.52190000       0.69840000       0.52190000
   106  H          0.47810000       0.19840000       0.97810000
   107  H          0.47810000       0.30160000       0.47810000
   108  H          0.52190000       0.80160000       0.02190000
