data_YILLAG03
_symmetry_space_group_name_H-M    'P1'
_symmetry_Int_Tables_number       1
loop_
_symmetry_equiv_pos_site_id
_symmetry_equiv_pos_as_xyz
1 x,y,z
_cell_length_a                   5.7593
_cell_length_b                   5.7723
_cell_length_c                   12.4927
_cell_angle_alpha                90.0
_cell_angle_beta                 90.0
_cell_angle_gamma                90.0
loop_
_atom_site_label
_atom_site_type_symbol
_atom_site_fract_x
_atom_site_fract_y
_atom_site_fract_z
     1  O          0.52414000       0.73104000       0.42773170
     2  O         -0.02414000       0.26896000       0.92773170
     3  O          0.47586000       0.23104000       0.07226830
     4  O          0.02414000       0.76896000       0.57226830
     5  O          0.37974000       0.45885000       0.31826190
     6  O          0.12026000       0.54115000       0.81826190
     7  O          0.62026000       0.95885000       0.18173810
     8  O          0.87974000       0.04115000       0.68173810
     9  H          0.25150000       0.51480000       0.33840000
    10  H          0.24850000       0.48520000       0.83840000
    11  H          0.74850000       0.01480000       0.16160000
    12  H          0.75150000      -0.01480000       0.66160000
    13  O          0.96484000       0.63124000       0.36031190
    14  O          0.53516000       0.36876000       0.86031190
    15  O          0.03516000       0.13124000       0.13968810
    16  O          0.46484000       0.86876000       0.63968810
    17  H          0.95280000       0.67670000       0.42421500
    18  H          0.54720000       0.32330000       0.92421500
    19  H          0.04720000       0.17670000       0.07578500
    20  H          0.45280000       0.82330000       0.57578500
    21  C          0.54976000       0.57086000       0.36633000
    22  C          0.95024000       0.42914000       0.86633000
    23  C          0.45024000       0.07086000       0.13367000
    24  C          0.04976000       0.92914000       0.63367000
    25  C          0.78486000       0.46796000       0.33873000
    26  C          0.71514000       0.53204000       0.83873000
    27  C          0.21514000       0.96796000       0.16127000
    28  C          0.28486000       0.03204000       0.66127000
    29  H          0.78679100       0.43216700       0.26035500
    30  H          0.71320900       0.56783300       0.76035500
    31  H          0.21320900       0.93216700       0.23964500
    32  H          0.28679100       0.06783300       0.73964500
    33  C          0.82077000       0.24197000       0.40003000
    34  C          0.67923000       0.75803000       0.90003000
    35  C          0.17923000       0.74197000       0.09997000
    36  C          0.32077000       0.25803000       0.59997000
    37  H          0.69475100       0.13395100       0.38282300
    38  H          0.80524900       0.86604900       0.88282300
    39  H          0.30524900       0.63395100       0.11717700
    40  H          0.19475100       0.36604900       0.61717700
    41  H          0.82073200       0.27355800       0.47704100
    42  H          0.67926800       0.72644200       0.97704100
    43  H          0.17926800       0.77355800       0.02295900
    44  H          0.32073200       0.22644200       0.52295900
    45  H          0.96977200       0.17307400       0.37939400
    46  H          0.53022800       0.82692600       0.87939400
    47  H          0.03022800       0.67307400       0.12060600
    48  H          0.46977200       0.32692600       0.62060600
