data_YILLAG02
_symmetry_space_group_name_H-M    'P1'
_symmetry_Int_Tables_number       1
loop_
_symmetry_equiv_pos_site_id
_symmetry_equiv_pos_as_xyz
1 x,y,z
_cell_length_a                   5.73233
_cell_length_b                   9.01905
_cell_length_c                   17.35971
_cell_angle_alpha                90.0
_cell_angle_beta                 90.0
_cell_angle_gamma                90.0
loop_
_atom_site_label
_atom_site_type_symbol
_atom_site_fract_x
_atom_site_fract_y
_atom_site_fract_z
     1  O          0.51985170       0.67020120       0.40602600
     2  O         -0.01985170       0.32979880       0.90602600
     3  O          0.48014830       0.17020120       0.09397400
     4  O          0.01985170       0.82979880       0.59397400
     5  O          0.66400190       0.54183140       0.50523600
     6  O          0.83599810       0.45816860       0.00523600
     7  O          0.33599810       0.04183140      -0.00523600
     8  O          0.16400190       0.95816860       0.49476400
     9  H          0.79140000       0.57120000       0.48891200
    10  H          0.70860000       0.42880000       0.98891200
    11  H          0.20860000       0.07120000       0.01108800
    12  H          0.29140000       0.92880000       0.51108800
    13  O          0.07304170       0.62334120       0.45338600
    14  O          0.42695830       0.37665880       0.95338600
    15  O          0.92695830       0.12334120       0.04661400
    16  O          0.57304170       0.87665880       0.54661400
    17  H          0.08840000       0.59520000       0.40591200
    18  H          0.41160000       0.40480000       0.90591200
    19  H          0.91160000       0.09520000       0.09408800
    20  H          0.58840000       0.90480000       0.59408800
    21  C          0.49222000       0.59653150       0.46383800
    22  C          0.00778000       0.40346850       0.96383800
    23  C          0.50778000       0.09653150       0.03616200
    24  C         -0.00778000       0.90346850       0.53616200
    25  C          0.25462000       0.55395150       0.49609800
    26  C          0.24538000       0.44604850      -0.00390200
    27  C          0.74538000       0.05395150       0.00390200
    28  C          0.75462000       0.94604850       0.50390200
    29  H          0.24597600       0.59170500       0.55017400
    30  H          0.25402400       0.40829500       0.05017400
    31  H          0.75402400       0.09170500       0.94982600
    32  H          0.74597600       0.90829500       0.44982600
    33  C          0.22633000       0.38621170       0.49885900
    34  C          0.27367000       0.61378830      -0.00114100
    35  C          0.77367000       0.88621170       0.00114100
    36  C          0.72633000       0.11378830       0.50114100
    37  H          0.24181600       0.34552800       0.44675800
    38  H          0.25818400       0.65447200       0.94675800
    39  H          0.75818400       0.84552800       0.05324200
    40  H          0.74181600       0.15447200       0.55324200
    41  H          0.07192400       0.36153000       0.51943600
    42  H          0.42807600       0.63847000       0.01943600
    43  H          0.92807600       0.86153000       0.98056400
    44  H          0.57192400       0.13847000       0.48056400
    45  H          0.34699200       0.34359300       0.53214700
    46  H          0.15300800       0.65640700       0.03214700
    47  H          0.65300800       0.84359300       0.96785300
    48  H          0.84699200       0.15640700       0.46785300
    49  O          0.06452000       0.53188130       0.30412600
    50  O          0.43548000       0.46811870       0.80412600
    51  O          0.93548000       0.03188130       0.19587400
    52  O          0.56452000       0.96811870       0.69587400
    53  O          0.05282000       0.53450140       0.17561600
    54  O          0.44718000       0.46549860       0.67561600
    55  O          0.94718000       0.03450140       0.32438400
    56  O          0.55282000       0.96549860       0.82438400
    57  H          0.96560000       0.46030000       0.18531200
    58  H          0.53440000       0.53970000       0.68531200
    59  H          0.03440000       0.96030000       0.31468800
    60  H          0.46560000       0.03970000       0.81468800
    61  O          0.24212000       0.81550120       0.30414600
    62  O          0.25788000       0.18449880       0.80414600
    63  O          0.75788000       0.31550120       0.19585400
    64  O          0.74212000       0.68449880       0.69585400
    65  H          0.31440000       0.77120000       0.33801200
    66  H          0.18560000       0.22880000       0.83801200
    67  H          0.68560000       0.27120000       0.16198800
    68  H          0.81440000       0.72880000       0.66198800
    69  C          0.11332000       0.58918170       0.24282800
    70  C          0.38668000       0.41081830       0.74282800
    71  C          0.88668000       0.08918170       0.25717200
    72  C          0.61332000       0.91081830       0.75717200
    73  C          0.25523000       0.73106160       0.23515900
    74  C          0.24477000       0.26893840       0.73515900
    75  C          0.74477000       0.23106160       0.26484100
    76  C          0.75523000       0.76893840       0.76484100
    77  H          0.18632900       0.79141600       0.19251600
    78  H          0.31367100       0.20858400       0.69251600
    79  H          0.81367100       0.29141600       0.30748400
    80  H          0.68632900       0.70858400       0.80748400
    81  C          0.50693000       0.69432000       0.21371100
    82  C         -0.00693000       0.30568000       0.71371100
    83  C          0.49307000       0.19432000       0.28628900
    84  C          0.00693000       0.80568000       0.78628900
    85  H          0.50895300       0.63594300       0.16610300
    86  H         -0.00895300       0.36405700       0.66610300
    87  H          0.49104700       0.13594300       0.33389700
    88  H          0.00895300       0.86405700       0.83389700
    89  H          0.57902700       0.63698600       0.25533700
    90  H          0.92097300       0.36301400       0.75533700
    91  H          0.42097300       0.13698600       0.24466300
    92  H          0.07902700       0.86301400       0.74466300
    93  H          0.59444500       0.78646600       0.20592700
    94  H          0.90555500       0.21353400       0.70592700
    95  H          0.40555500       0.28646600       0.29407300
    96  H          0.09444500       0.71353400       0.79407300
