data_YILLAG
_symmetry_space_group_name_H-M    'P1'
_symmetry_Int_Tables_number       1
loop_
_symmetry_equiv_pos_site_id
_symmetry_equiv_pos_as_xyz
1 x,y,z
_cell_length_a                   5.48963
_cell_length_b                   8.42213
_cell_length_c                   9.34535
_cell_angle_alpha                90.0
_cell_angle_beta                 90.0
_cell_angle_gamma                90.0
loop_
_atom_site_label
_atom_site_type_symbol
_atom_site_fract_x
_atom_site_fract_y
_atom_site_fract_z
     1  O          0.61622000       0.42791000       0.28981000
     2  O          0.88378000       0.57209000       0.78981000
     3  O          0.11622000       0.07209000       0.71019000
     4  O          0.38378000       0.92791000       0.21019000
     5  O          0.87002000       0.59561000       0.18041000
     6  O          0.62998000       0.40439000       0.68041000
     7  O          0.37002000       0.90439000       0.81959000
     8  O          0.12998000       0.09561000       0.31959000
     9  O          0.55352000       0.66201000       0.97746100
    10  O          0.94648000       0.33799000       0.47746100
    11  O          0.05352000       0.83799000       0.02253900
    12  O          0.44648000       0.16201000       0.52253900
    13  C          0.67352000       0.53181000       0.18951000
    14  C          0.82648000       0.46819000       0.68951000
    15  C          0.17352000       0.96819000       0.81049000
    16  C          0.32648000       0.03181000       0.31049000
    17  C          0.46152000       0.56351000       0.08911000
    18  C          0.03848000       0.43649000       0.58911000
    19  C          0.96152000       0.93649000       0.91089000
    20  C          0.53848000       0.06351000       0.41089000
    21  C          0.34923000       0.41162000       0.03072000
    22  C          0.15077000       0.58838000       0.53072000
    23  C          0.84923000       0.08838000       0.96928000
    24  C          0.65077000       0.91162000       0.46928000
    25  H          0.72740000       0.41120000       0.34220000
    26  H          0.77260000       0.58880000       0.84220000
    27  H          0.22740000       0.08880000       0.65780000
    28  H          0.27260000       0.91120000       0.15780000
    29  H          0.34130000       0.62020000       0.14420000
    30  H          0.15870000       0.37980000       0.64420000
    31  H          0.84130000       0.87980000       0.85580000
    32  H          0.65870000       0.12020000       0.35580000
    33  H          0.45140000       0.72720000       0.95380000
    34  H          0.04860000       0.27280000       0.45380000
    35  H          0.95140000       0.77280000       0.04620000
    36  H          0.54860000       0.22720000       0.54620000
    37  H          0.27930000       0.35220000       0.11620000
    38  H          0.22070000       0.64780000       0.61620000
    39  H          0.77930000       0.14780000       0.88380000
    40  H          0.72070000       0.85220000       0.38380000
    41  H          0.21830000       0.44120000       0.96780000
    42  H          0.28170000       0.55880000       0.46780000
    43  H          0.71830000       0.05880000       0.03220000
    44  H          0.78170000       0.94120000       0.53220000
    45  H          0.47030000       0.35220000       0.97580000
    46  H          0.02970000       0.64780000       0.47580000
    47  H          0.97030000       0.14780000       0.02420000
    48  H          0.52970000       0.85220000       0.52420000
