data_YIPMOC
_symmetry_space_group_name_H-M    'P1'
_symmetry_Int_Tables_number       1
loop_
_symmetry_equiv_pos_site_id
_symmetry_equiv_pos_as_xyz
1 x,y,z
_cell_length_a                   10.14809
_cell_length_b                   11.268711
_cell_length_c                   11.525512
_cell_angle_alpha                90.0
_cell_angle_beta                 102.3713
_cell_angle_gamma                90.0
loop_
_atom_site_label
_atom_site_type_symbol
_atom_site_fract_x
_atom_site_fract_y
_atom_site_fract_z
     1  F          0.33187130       0.85372890       0.23459130
     2  F          0.16812870       0.35372890       0.26540870
     3  F          0.66812870       0.14627110       0.76540870
     4  F          0.83187130       0.64627110       0.73459130
     5  F          0.53925160       0.69428100       0.37182130
     6  F          0.96074840       0.19428100       0.12817870
     7  F          0.46074840       0.30571900       0.62817870
     8  F          0.03925160       0.80571900       0.87182130
     9  N          0.81620130       0.20065110       0.46090130
    10  N          0.68379870       0.70065110       0.03909870
    11  N          0.18379870       0.79934890       0.53909870
    12  N          0.31620130       0.29934890       0.96090130
    13  N          0.85191120       0.08095110       0.47470130
    14  N          0.64808880       0.58095110       0.02529870
    15  N          0.14808880       0.91904890       0.52529870
    16  N          0.35191120       0.41904890       0.97470130
    17  C          0.69233140       0.21873130       0.40757140
    18  C          0.80766860       0.71873130       0.09242860
    19  C          0.30766860       0.78126870       0.59242860
    20  C          0.19233140       0.28126870       0.90757140
    21  C          0.59512140       0.12473130       0.35578130
    22  C          0.90487860       0.62473130       0.14421870
    23  C          0.40487860       0.87526870       0.64421870
    24  C          0.09512140       0.37526870       0.85578130
    25  C          0.62408170       0.04173160       0.27662160
    26  C          0.87591830       0.54173160       0.22337840
    27  C          0.37591830       0.95826840       0.72337840
    28  C          0.12408170       0.45826840       0.77662160
    29  H          0.70517500       0.04675500       0.25163100
    30  H          0.79482500       0.54675500       0.24836900
    31  H          0.29482500       0.95324500       0.74836900
    32  H          0.20517500       0.45324500       0.75163100
    33  C          0.53499190       0.95160830       0.23399180
    34  C          0.96500810       0.45160830       0.26600820
    35  C          0.46500810       0.04839170       0.76600820
    36  C          0.03499190       0.54839170       0.73399180
    37  H          0.55442200       0.89688500       0.17961400
    38  H          0.94557800       0.39688500       0.32038600
    39  H          0.44557800       0.10311500       0.82038600
    40  H          0.05442200       0.60311500       0.67961400
    41  C          0.41855170       0.94453840       0.27307170
    42  C          0.08144830       0.44453840       0.22692830
    43  C          0.58144830       0.05546160       0.72692830
    44  C          0.91855170       0.55546160       0.77307170
    45  C          0.38553170       0.02364180       0.35122170
    46  C          0.11446830       0.52364180       0.14877830
    47  C          0.61446830       0.97635820       0.64877830
    48  C          0.88553170       0.47635820       0.85122170
    49  H          0.30522800       0.01606000       0.37713400
    50  H          0.19477200       0.51606000       0.12286600
    51  H          0.69477200       0.98394000       0.62286600
    52  H          0.80522800       0.48394000       0.87713400
    53  C          0.47312160       0.11498160       0.39115160
    54  C          0.02687840       0.61498160       0.10884840
    55  C          0.52687840       0.88501840       0.60884840
    56  C          0.97312160       0.38501840       0.89115160
    57  H          0.45037500       0.17113600       0.44266200
    58  H          0.04962500       0.67113600       0.05733800
    59  H          0.54962500       0.82886400       0.55733800
    60  H          0.95037500       0.32886400       0.94266200
    61  C          0.64851150       0.34474130       0.39940140
    62  C          0.85148850       0.84474130       0.10059860
    63  C          0.35148850       0.65525870       0.60059860
    64  C          0.14851150       0.15525870       0.89940140
    65  C          0.53820170       0.38165150       0.31388160
    66  C          0.96179830       0.88165150       0.18611840
    67  C          0.46179830       0.61834850       0.68611840
    68  C          0.03820170       0.11834850       0.81388160
    69  H          0.48884700       0.32646200       0.26216800
    70  H          0.01115300       0.82646200       0.23783200
    71  H          0.51115300       0.67353800       0.73783200
    72  H         -0.01115300       0.17353800       0.76216800
    73  C          0.50115190       0.49994170       0.30501170
    74  C         -0.00115190      -0.00005830       0.19498830
    75  C          0.49884810       0.50005830       0.69498830
    76  C          0.00115190       0.00005830       0.80501170
    77  H          0.42701800       0.52475900       0.24793200
    78  H          0.07298200       0.02475900       0.25206800
    79  H          0.57298200       0.47524100       0.75206800
    80  H          0.92701800       0.97524100       0.74793200
    81  C          0.57452000       0.57903160       0.38076170
    82  C          0.92548000       0.07903160       0.11923830
    83  C          0.42548000       0.42096840       0.61923830
    84  C          0.07452000       0.92096840       0.88076170
    85  C          0.68312000       0.54650160       0.46662170
    86  C          0.81688000       0.04650160       0.03337830
    87  C          0.31688000       0.45349840       0.53337830
    88  C          0.18312000       0.95349840       0.96662170
    89  H          0.73132700       0.60268000       0.51784700
    90  H          0.76867300       0.10268000       0.98215300
    91  H          0.26867300       0.39732000       0.48215300
    92  H          0.23132700       0.89732000       0.01784700
    93  C          0.71972180       0.42891150       0.47574160
    94  C          0.78027820       0.92891150       0.02425840
    95  C          0.28027820       0.57108850       0.52425840
    96  C          0.21972180       0.07108850       0.97574160
    97  H          0.79337700       0.40540000       0.53401300
    98  H          0.70662300       0.90540000       0.96598700
    99  H          0.20662300       0.59460000       0.46598700
   100  H          0.29337700       0.09460000       0.03401300
   101  C          0.97954140       0.06282120       0.49187130
   102  C          0.52045860       0.56282120       0.00812870
   103  C          0.02045860       0.93717880       0.50812870
   104  C          0.47954140       0.43717880      -0.00812870
   105  C          0.08342160       0.15739140       0.49659180
   106  C          0.41657840       0.65739140       0.00340820
   107  C          0.91657840       0.84260860       0.50340820
   108  C          0.58342160       0.34260860      -0.00340820
   109  H          0.09002600       0.17827300       0.41727800
   110  H          0.40997400       0.67827300       0.08272200
   111  H          0.90997400       0.82172700       0.58272200
   112  H          0.59002600       0.32172700       0.91727800
   113  H          0.16912900       0.12871100       0.53955100
   114  H          0.33087100       0.62871100       0.96044900
   115  H          0.83087100       0.87128900       0.46044900
   116  H          0.66912900       0.37128900       0.03955100
   117  H          0.05796200       0.22605300       0.53596200
   118  H          0.44203800       0.72605300       0.96403800
   119  H          0.94203800       0.77394700       0.46403800
   120  H          0.55796200       0.27394700       0.03596200
