data_YIPMOC02
_symmetry_space_group_name_H-M    'P1'
_symmetry_Int_Tables_number       1
loop_
_symmetry_equiv_pos_site_id
_symmetry_equiv_pos_as_xyz
1 x,y,z
_cell_length_a                   4.91373
_cell_length_b                   15.00539
_cell_length_c                   17.77761
_cell_angle_alpha                86.4522
_cell_angle_beta                 86.4813
_cell_angle_gamma                89.8883
loop_
_atom_site_label
_atom_site_type_symbol
_atom_site_fract_x
_atom_site_fract_y
_atom_site_fract_z
     1  N          0.93746000       0.61118100       0.01566900
     2  N          0.06254000       0.38881900       0.98433100
     3  N         -0.00734000       0.67210100       0.06844100
     4  N          0.00734000       0.32789900       0.93155900
     5  F          0.43015000       0.81769130       0.73878100
     6  F          0.56985000       0.18230870       0.26121900
     7  F          0.24775000      -0.00366890       0.25609110
     8  F          0.75225000       0.00366890       0.74390890
     9  C          0.09714000       0.74698120       0.04243120
    10  C          0.90286000       0.25301880       0.95756880
    11  C          0.18854000       0.76696120       0.96208880
    12  C          0.81146000       0.23303880       0.03791120
    13  C          0.39125000       0.71868160       0.92747860
    14  C          0.60875000       0.28131840       0.07252140
    15  H          0.47510600       0.67321500       0.95546000
    16  H          0.52489400       0.32678500       0.04454000
    17  C          0.47487000       0.73519190       0.85268850
    18  C          0.52513000       0.26480810       0.14731150
    19  H          0.61373400       0.70182500       0.83030700
    20  H          0.38626600       0.29817500       0.16969300
    21  C          0.35136000       0.80058180       0.81279860
    22  C          0.64864000       0.19941820       0.18720140
    23  C          0.15367000       0.85105190       0.84376820
    24  C          0.84633000       0.14894810       0.15623180
    25  H          0.07184700       0.89619800       0.81489800
    26  H          0.92815300       0.10380200       0.18510200
    27  C          0.07386000       0.83485160       0.91908840
    28  C          0.92614000       0.16514840       0.08091160
    29  H          0.94004900       0.87044200       0.94123300
    30  H          0.05995100       0.12955800       0.05876700
    31  C          0.13204000       0.81511120       0.09797130
    32  C          0.86796000       0.18488880       0.90202870
    33  C         -0.02076000       0.81139140       0.16603140
    34  C          0.02076000       0.18860860       0.83396860
    35  H          0.84834900       0.76686000       0.17598000
    36  H          0.15165100       0.23314000       0.82402000
    37  C          0.01697000       0.87219170       0.21947150
    38  C         -0.01697000       0.12780830       0.78052850
    39  H          0.91307700       0.86891500       0.26509600
    40  H          0.08692300       0.13108500       0.73490400
    41  C          0.20747000       0.93668170       0.20430180
    42  C          0.79253000       0.06331830       0.79569820
    43  C          0.35997000       0.94420180       0.13802000
    44  C          0.64003000       0.05579820       0.86198000
    45  H          0.48839100       0.98961800       0.12878100
    46  H          0.51160900       0.01038200       0.87121900
    47  C          0.32146000       0.88288160       0.08367160
    48  C          0.67854000       0.11711840       0.91632840
    49  H          0.42338400       0.88765400       0.03777100
    50  H          0.57661600       0.11234600       0.96222900
    51  C          0.03744000       0.53296120       0.02682110
    52  C          0.96256000       0.46703880       0.97317890
    53  C          0.22185000       0.50705150       0.08758130
    54  C          0.77815000       0.49294850       0.91241870
    55  H          0.40608900       0.52255300       0.07087100
    56  H          0.59391100       0.47744700       0.92912900
    57  H          0.20921500       0.44381600       0.09929600
    58  H          0.79078500       0.55618400       0.90070400
    59  H          0.16931200       0.53802100       0.13184100
    60  H          0.83068800       0.46197900       0.86815900
    61  N          0.44304000       0.89114100       0.47815100
    62  N          0.55696000       0.10885900       0.52184900
    63  N          0.49844000       0.83655100       0.41865100
    64  N          0.50156000       0.16344900       0.58134900
    65  F          0.66924000       0.52028100       0.20659900
    66  F          0.33076000       0.47971900       0.79340100
    67  F          0.92145000       0.64505140       0.72055100
    68  F          0.07855000       0.35494860       0.27944900
    69  C          0.59344000       0.75855120       0.43574120
    70  C          0.40656000       0.24144880       0.56425880
    71  C          0.61624000       0.69574120       0.37450120
    72  C          0.38376000       0.30425880       0.62549880
    73  C          0.45625000       0.70596140       0.31362130
    74  C          0.54375000       0.29403860       0.68637870
    75  H          0.33370200       0.75321700       0.31096400
    76  H          0.66629800       0.24678300       0.68903600
    77  C          0.47356000       0.64756160       0.25641140
    78  C          0.52644000       0.35243840       0.74358860
    79  H          0.36413000       0.65506900       0.21561600
    80  H          0.63587000       0.34493100       0.78438400
    81  C          0.65275000       0.57934150       0.26098140
    82  C          0.34725000       0.42065850       0.73901860
    83  C          0.81655000       0.56712160       0.31860170
    84  C          0.18345000       0.43287840       0.68139830
    85  H          0.94043900       0.52021700       0.31979900
    86  H          0.05956100       0.47978300       0.68020100
    87  C          0.79785000       0.62557150       0.37631150
    88  C          0.20215000       0.37442850       0.62368850
    89  H          0.90898700       0.61728200       0.41663100
    90  H          0.09101300       0.38271800       0.58336900
    91  C          0.67914000       0.72864120       0.51168120
    92  C          0.32086000       0.27135880       0.48831880
    93  C          0.87405000       0.77472140       0.54623130
    94  C          0.12595000       0.22527860       0.45376870
    95  H          0.95091700       0.82590600       0.52150100
    96  H          0.04908300       0.17409400       0.47849900
    97  C          0.95726000       0.74730180       0.61563160
    98  C          0.04274000       0.25269820       0.38436840
    99  H          0.09065900       0.77872600       0.63786400
   100  H          0.90934100       0.22127400       0.36213600
   101  C          0.84237000       0.67402000       0.65125150
   102  C          0.15763000       0.32598000       0.34874850
   103  C          0.65067000       0.62562000       0.62042190
   104  C          0.34933000       0.37438000       0.37957810
   105  H          0.57445400       0.57506200       0.64646200
   106  H          0.42554600       0.42493800       0.35353800
   107  C          0.57046000       0.65263170       0.54948170
   108  C          0.42954000       0.34736830       0.45051830
   109  H          0.44192700       0.61930100       0.52701700
   110  H          0.55807300       0.38069900       0.47298300
   111  C          0.54074000       0.97041120       0.46949110
   112  C          0.45926000       0.02958880       0.53050890
   113  C          0.72796000       0.00322150       0.40496140
   114  C          0.27204000      -0.00322150       0.59503860
   115  H          0.90184700       0.97457400       0.40865300
   116  H          0.09815300       0.02542600       0.59134700
   117  H          0.75035200       0.06665400       0.40609200
   118  H          0.24964800       0.93334600       0.59390800
   119  H          0.65246100       0.98964000       0.35844600
   120  H          0.34753900       0.01036000       0.64155400
