data_YIPMOC01
_symmetry_space_group_name_H-M    'P1'
_symmetry_Int_Tables_number       1
loop_
_symmetry_equiv_pos_site_id
_symmetry_equiv_pos_as_xyz
1 x,y,z
_cell_length_a                   5.669312
_cell_length_b                   7.6423
_cell_length_c                   30.8917
_cell_angle_alpha                90.0
_cell_angle_beta                 90.46514
_cell_angle_gamma                90.0
loop_
_atom_site_label
_atom_site_type_symbol
_atom_site_fract_x
_atom_site_fract_y
_atom_site_fract_z
     1  F          0.61522000       0.30882000       0.79255400
     2  F          0.88478000       0.80882000       0.70744600
     3  F          0.38478000       0.69118000       0.20744600
     4  F          0.11522000       0.19118000       0.29255400
     5  F          0.94296000       0.16242000       0.59694600
     6  F          0.55704000       0.66242000       0.90305400
     7  F          0.05704000       0.83758000       0.40305400
     8  F          0.44296000       0.33758000       0.09694600
     9  N          0.56483000       0.47452000       0.59372500
    10  N          0.93517000       0.97452000       0.90627500
    11  N          0.43517000       0.52548000       0.40627500
    12  N          0.06483000       0.02548000       0.09372500
    13  N          0.55233000       0.55502000       0.55334500
    14  N          0.94767000       0.05502000       0.94665500
    15  N          0.44767000       0.44498000       0.44665500
    16  N          0.05233000       0.94498000       0.05334500
    17  C          0.46333000       0.55722000       0.62460500
    18  C          0.03667000       0.05722000       0.87539500
    19  C          0.53667000       0.44278000       0.37539500
    20  C          0.96333000       0.94278000       0.12460500
    21  C          0.50093000       0.48772000       0.66911500
    22  C         -0.00093000      -0.01228000       0.83088500
    23  C          0.49907000       0.51228000       0.33088500
    24  C          0.00093000       0.01228000       0.16911500
    25  C          0.69853000       0.38993000       0.67922600
    26  C          0.80147000       0.88993000       0.82077400
    27  C          0.30147000       0.61007000       0.32077400
    28  C          0.19853000       0.11007000       0.17922600
    29  H          0.80790400       0.36540500       0.65778800
    30  H          0.69209600       0.86540500       0.84221200
    31  H          0.19209600       0.63459500       0.34221200
    32  H          0.30790400       0.13459500       0.15778800
    33  C          0.73594000       0.32813000       0.72052700
    34  C          0.76406000       0.82813000       0.77947300
    35  C          0.26406000       0.67187000       0.27947300
    36  C          0.23594000       0.17187000       0.22052700
    37  H          0.86908800       0.26199300       0.72717500
    38  H          0.63091200       0.76199300       0.77282500
    39  H          0.13091200       0.73800700       0.27282500
    40  H          0.36908800       0.23800700       0.22717500
    41  C          0.57394000       0.36573000       0.75146600
    42  C          0.92606000       0.86573000       0.74853400
    43  C          0.42606000       0.63427000       0.24853400
    44  C          0.07394000       0.13427000       0.25146600
    45  C          0.37574000       0.45833000       0.74311600
    46  C          0.12426000       0.95833000       0.75688400
    47  C          0.62426000       0.54167000       0.25688400
    48  C          0.87574000       0.04167000       0.24311600
    49  H          0.26591400       0.47937400       0.76470500
    50  H          0.23408600       0.97937400       0.73529500
    51  H          0.73408600       0.52062600       0.23529500
    52  H          0.76591400       0.02062600       0.26470500
    53  C          0.34063000       0.52102000       0.70149500
    54  C          0.15937000       0.02102000       0.79850500
    55  C          0.65937000       0.47898000       0.29850500
    56  C          0.84063000       0.97898000       0.20149500
    57  H          0.20658500       0.58676100       0.69523300
    58  H          0.29341500       0.08676100       0.80476700
    59  H          0.79341500       0.41323900       0.30476700
    60  H          0.70658500       0.91323900       0.19523300
    61  C          0.31863000       0.71612000       0.61840500
    62  C          0.18137000       0.21612000       0.88159500
    63  C          0.68137000       0.28388000       0.38159500
    64  C          0.81863000       0.78388000       0.11840500
    65  C          0.39053000       0.87322000       0.63630600
    66  C          0.10947000       0.37322000       0.86369400
    67  C          0.60947000       0.12678000       0.36369400
    68  C          0.89053000       0.62678000       0.13630600
    69  H          0.52566000       0.87695600       0.65354200
    70  H          0.97434000       0.37695600       0.84645800
    71  H          0.47434000       0.12304400       0.34645800
    72  H          0.02566000       0.62304400       0.15354200
    73  C          0.26365000       0.02473000       0.62881700
    74  C          0.23635000       0.52473000       0.87118300
    75  C          0.73635000       0.97527000       0.37118300
    76  C          0.76365000       0.47527000       0.12881700
    77  H          0.31313100       0.13124800       0.64022500
    78  H          0.18686900       0.63124800       0.85977500
    79  H          0.68686900       0.86875200       0.35977500
    80  H          0.81313100       0.36875200       0.14022500
    81  C          0.06485000       0.01323000       0.60434700
    82  C          0.43515000       0.51323000       0.89565300
    83  C          0.93515000      -0.01323000       0.39565300
    84  C          0.56485000       0.48677000       0.10434700
    85  C         -0.01534000       0.86084000       0.58702700
    86  C          0.51534000       0.36084000       0.91297300
    87  C          0.01534000       0.13916000       0.41297300
    88  C          0.48466000       0.63916000       0.08702700
    89  H          0.84588400       0.85775200       0.57079500
    90  H          0.65411600       0.35775200       0.92920500
    91  H          0.15411600       0.14224800       0.42920500
    92  H          0.34588400       0.64224800       0.07079500
    93  C          0.11353000       0.71153000       0.59404600
    94  C          0.38647000       0.21153000       0.90595400
    95  C          0.88647000       0.28847000       0.40595400
    96  C          0.61353000       0.78847000       0.09404600
    97  H          0.06217600       0.60602600       0.58226800
    98  H          0.43782400       0.10602600       0.91773200
    99  H          0.93782400       0.39397400       0.41773200
   100  H          0.56217600       0.89397400       0.08226800
   101  C          0.49853000       0.45703000       0.52148600
   102  C          0.00147000       0.95703000       0.97851400
   103  C          0.50147000       0.54297000       0.47851400
   104  C         -0.00147000       0.04297000       0.02148600
   105  C          0.43327000       0.26973000       0.52493800
   106  C          0.06673000       0.76973000       0.97506200
   107  C          0.56673000       0.73027000       0.47506200
   108  C          0.93327000       0.23027000       0.02493800
   109  H          0.50614500       0.22012100       0.55026300
   110  H         -0.00614500       0.72012100       0.94973700
   111  H          0.49385500       0.77987900       0.44973700
   112  H          0.00614500       0.27987900       0.05026300
   113  H          0.48630400       0.20829800       0.49970000
   114  H          0.01369600       0.70829800       0.00030000
   115  H          0.51369600       0.79170200       0.50030000
   116  H         -0.01369600       0.29170200      -0.00030000
   117  H          0.26496600       0.25931900       0.52704900
   118  H          0.23503400       0.75931900       0.97295100
   119  H          0.73503400       0.74068100       0.47295100
   120  H          0.76496600       0.24068100       0.02704900
