data_YIQXUU01
_symmetry_space_group_name_H-M    'P1'
_symmetry_Int_Tables_number       1
loop_
_symmetry_equiv_pos_site_id
_symmetry_equiv_pos_as_xyz
1 x,y,z
_cell_length_a                   10.53065
_cell_length_b                   10.61185
_cell_length_c                   16.70788
_cell_angle_alpha                90.0
_cell_angle_beta                 99.938618
_cell_angle_gamma                90.0
loop_
_atom_site_label
_atom_site_type_symbol
_atom_site_fract_x
_atom_site_fract_y
_atom_site_fract_z
     1  S          0.45042300       0.51500300       0.19823200
     2  S          0.04957700       0.01500300       0.30176800
     3  S          0.54957700       0.48499700       0.80176800
     4  S          0.95042300       0.98499700       0.69823200
     5  O          0.84722100       0.06036800       0.09614600
     6  O          0.65277900       0.56036800       0.40385400
     7  O          0.15277900       0.93963200       0.90385400
     8  O          0.34722100       0.43963200       0.59614600
     9  N          0.21466900       0.58648800       0.08500600
    10  N          0.28533100       0.08648800       0.41499400
    11  N          0.78533100       0.41351200       0.91499400
    12  N          0.71466900       0.91351200       0.58500600
    13  C          0.83446900       0.95458100       0.12337700
    14  C          0.66553100       0.45458100       0.37662300
    15  C          0.16553100       0.04541900       0.87662300
    16  C          0.33446900       0.54541900       0.62337700
    17  C          0.93289900       0.85598100       0.11945600
    18  C          0.56710100       0.35598100       0.38054400
    19  C          0.06710100       0.14401900       0.88054400
    20  C          0.43289900       0.64401900       0.61945600
    21  C          0.91710900       0.72842100       0.13658600
    22  C          0.58289100       0.22842100       0.36341400
    23  C          0.08289100       0.27157900       0.86341400
    24  C          0.41710900       0.77157900       0.63658600
    25  H          0.84090000       0.70210000       0.15500000
    26  H          0.65910000       0.20210000       0.34500000
    27  H          0.15910000       0.29790000       0.84500000
    28  H          0.34090000       0.79790000       0.65500000
    29  C          0.00988100       0.63934100       0.12732600
    30  C          0.49011900       0.13934100       0.37267400
    31  C         -0.00988100       0.36065900       0.87267400
    32  C          0.50988100       0.86065900       0.62732600
    33  H         -0.00280000       0.55370000       0.14050000
    34  H          0.50280000       0.05370000       0.35950000
    35  H          0.00280000       0.44630000       0.85950000
    36  H          0.49720000       0.94630000       0.64050000
    37  C          0.12256100       0.67496100       0.09854600
    38  C          0.37743900       0.17496100       0.40145400
    39  C          0.87743900       0.32503900       0.90145400
    40  C          0.62256100       0.82503900       0.59854600
    41  C          0.14008100       0.80354100       0.08281700
    42  C          0.35991900       0.30354100       0.41718300
    43  C          0.85991900       0.19645900       0.91718300
    44  C          0.64008100       0.69645900       0.58281700
    45  H          0.21660000       0.83040000       0.06500000
    46  H          0.28340000       0.33040000       0.43500000
    47  H          0.78340000       0.16960000       0.93500000
    48  H          0.71660000       0.66960000       0.56500000
    49  C          0.04708100       0.89091100       0.09302700
    50  C          0.45291900       0.39091100       0.40697300
    51  C          0.95291900       0.10908900       0.90697300
    52  C          0.54708100       0.60908900       0.59302700
    53  H          0.06090000       0.97710000       0.08180000
    54  H          0.43910000       0.47710000       0.41820000
    55  H          0.93910000       0.02290000       0.91820000
    56  H          0.56090000       0.52290000       0.58180000
    57  C          0.33020100       0.62255100       0.05683700
    58  C          0.16979900       0.12255100       0.44316300
    59  C          0.66979900       0.37744900       0.94316300
    60  C          0.83020100       0.87744900       0.55683700
    61  C          0.44837100       0.59344100       0.10487700
    62  C          0.05162900       0.09344100       0.39512300
    63  C          0.55162900       0.40655900       0.89512300
    64  C          0.94837100       0.90655900       0.60487700
    65  C          0.56317110       0.62331110       0.07863700
    66  C          0.93682890       0.12331110       0.42136300
    67  C          0.43682890       0.37668890       0.92136300
    68  C          0.06317110       0.87668890       0.57863700
    69  H          0.64350000       0.60180000       0.11100000
    70  H          0.85650000       0.10180000       0.38900000
    71  H          0.35650000       0.39820000       0.88900000
    72  H          0.14350000       0.89820000       0.61100000
    73  C          0.55988120       0.68472110       0.00490800
    74  C          0.94011880       0.18472110       0.49509200
    75  C          0.44011880       0.31527890      -0.00490800
    76  C          0.05988120       0.81527890       0.50490800
    77  H          0.63800000       0.70850000       0.98790000
    78  H          0.86200000       0.20850000       0.51210000
    79  H          0.36200000       0.29150000       0.01210000
    80  H          0.13800000       0.79150000       0.48790000
    81  C          0.44235130       0.71129110       0.95611200
    82  C          0.05764870       0.21129110       0.54388800
    83  C          0.55764870       0.28870890       0.04388800
    84  C          0.94235130       0.78870890       0.45611200
    85  H          0.44040000       0.75170000       0.90520000
    86  H          0.05960000       0.25170000       0.59480000
    87  H          0.55960000       0.24830000       0.09480000
    88  H          0.94040000       0.74830000       0.40520000
    89  C          0.32731120       0.67913110       0.98134300
    90  C          0.17268880       0.17913110       0.51865700
    91  C          0.67268880       0.32086890       0.01865700
    92  C          0.82731120       0.82086890       0.48134300
    93  H          0.24720000       0.69570000       0.94720000
    94  H          0.25280000       0.19570000       0.55280000
    95  H          0.75280000       0.30430000       0.05280000
    96  H          0.74720000       0.80430000       0.44720000
    97  C          0.21246100       0.45871900       0.11155600
    98  C          0.28753900       0.95871900       0.38844400
    99  C          0.78753900       0.54128100       0.88844400
   100  C          0.71246100       0.04128100       0.61155600
   101  C          0.31905100       0.41309100       0.16564600
   102  C          0.18094900       0.91309100       0.33435400
   103  C          0.68094900       0.58690900       0.83435400
   104  C          0.81905100       0.08690900       0.66564600
   105  C          0.32277110       0.28753110       0.19056700
   106  C          0.17722890       0.78753110       0.30943300
   107  C          0.67722890       0.71246890       0.80943300
   108  C          0.82277110       0.21246890       0.69056700
   109  H          0.39540000       0.25650000       0.22690000
   110  H          0.10460000       0.75650000       0.27310000
   111  H          0.60460000       0.74350000       0.77310000
   112  H          0.89540000       0.24350000       0.72690000
   113  C          0.22031110       0.20808110       0.16217700
   114  C          0.27968890       0.70808110       0.33782300
   115  C          0.77968890       0.79191890       0.83782300
   116  C          0.72031110       0.29191890       0.66217700
   117  H          0.22170000       0.12330000       0.18050000
   118  H          0.27830000       0.62330000       0.31950000
   119  H          0.77830000       0.87670000       0.81950000
   120  H          0.72170000       0.37670000       0.68050000
   121  C          0.11538110       0.25216100       0.10693700
   122  C          0.38461890       0.75216100       0.39306300
   123  C          0.88461890       0.74783900       0.89306300
   124  C          0.61538110       0.24783900       0.60693700
   125  H          0.04600000       0.19710000       0.08690000
   126  H          0.45400000       0.69710000       0.41310000
   127  H          0.95400000       0.80290000       0.91310000
   128  H          0.54600000       0.30290000       0.58690000
   129  C          0.11236100       0.37710100       0.08107700
   130  C          0.38763900       0.87710100       0.41892300
   131  C          0.88763900       0.62289900       0.91892300
   132  C          0.61236100       0.12289900       0.58107700
   133  H          0.04170000       0.40670000       0.04250000
   134  H          0.45830000       0.90670000       0.45750000
   135  H          0.95830000       0.59330000       0.95750000
   136  H          0.54170000       0.09330000       0.54250000
   137  C          0.71465900       0.92556100       0.15702700
   138  C          0.78534100       0.42556100       0.34297300
   139  C          0.28534100       0.07443900       0.84297300
   140  C          0.21465900       0.57443900       0.65702700
   141  C          0.71436890       0.85817110       0.22875700
   142  C          0.78563110       0.35817110       0.27124300
   143  C          0.28563110       0.14182890       0.77124300
   144  C          0.21436890       0.64182890       0.72875700
   145  H          0.79310000       0.82750000       0.25890000
   146  H          0.70690000       0.32750000       0.24110000
   147  H          0.20690000       0.17250000       0.74110000
   148  H          0.29310000       0.67250000       0.75890000
   149  C          0.59883880       0.83584120       0.25614800
   150  C          0.90116120       0.33584120       0.24385200
   151  C          0.40116120       0.16415880       0.74385200
   152  C          0.09883880       0.66415880       0.75614800
   153  H          0.59880000       0.78970000       0.30490000
   154  H          0.90120000       0.28970000       0.19510000
   155  H          0.40120000       0.21030000       0.69510000
   156  H          0.09880000       0.71030000       0.80490000
   157  C          0.48337880       0.88093120       0.21236800
   158  C          0.01662120       0.38093120       0.28763200
   159  C          0.51662120       0.11906880       0.78763200
   160  C          0.98337880       0.61906880       0.71236800
   161  H          0.40450000       0.86460000       0.23080000
   162  H          0.09550000       0.36460000       0.26920000
   163  H          0.59550000       0.13540000       0.76920000
   164  H          0.90450000       0.63540000       0.73080000
   165  C          0.48337890       0.94999120       0.14156800
   166  C          0.01662110       0.44999120       0.35843200
   167  C          0.51662110       0.05000880       0.85843200
   168  C          0.98337890       0.55000880       0.64156800
   169  H          0.40470000       0.98180000       0.11200000
   170  H          0.09530000       0.48180000       0.38800000
   171  H          0.59530000       0.01820000       0.88800000
   172  H          0.90470000       0.51820000       0.61200000
   173  C          0.59858890       0.97229110       0.11418800
   174  C          0.90141110       0.47229110       0.38581200
   175  C          0.40141110       0.02770890       0.88581200
   176  C          0.09858890       0.52770890       0.61418800
   177  H          0.59840000       0.01970000       0.06590000
   178  H          0.90160000       0.51970000       0.43410000
   179  H          0.40160000       0.98030000       0.93410000
   180  H          0.09840000       0.48030000       0.56590000
