data_YIQXUU
_symmetry_space_group_name_H-M    'P1'
_symmetry_Int_Tables_number       1
loop_
_symmetry_equiv_pos_site_id
_symmetry_equiv_pos_as_xyz
1 x,y,z
_cell_length_a                   9.04695
_cell_length_b                   9.51255
_cell_length_c                   12.67716
_cell_angle_alpha                92.583719
_cell_angle_beta                 106.815818
_cell_angle_gamma                117.841217
loop_
_atom_site_label
_atom_site_type_symbol
_atom_site_fract_x
_atom_site_fract_y
_atom_site_fract_z
     1  S          0.18210400       0.94481400       0.73352200
     2  S          0.81789600       0.05518600       0.26647800
     3  N          0.21990130       0.78614120       0.53709800
     4  N          0.78009870       0.21385880       0.46290200
     5  C          0.31506150       0.85874140       0.37746900
     6  C          0.68493850       0.14125860       0.62253100
     7  H          0.34620000       0.96750000       0.40340000
     8  H          0.65380000       0.03250000       0.59660000
     9  C          0.01754150       0.84334140       0.59961900
    10  C         -0.01754150       0.15665860       0.40038100
    11  C          0.29999150       0.83984140       0.74190900
    12  C          0.70000850       0.16015860       0.25809100
    13  O          0.41566130       0.73059120       0.09861800
    14  O          0.58433870       0.26940880       0.90138200
    15  C          0.25263150       0.74182140       0.43997900
    16  C          0.74736850       0.25817860       0.56002100
    17  C          0.21212160       0.58359140       0.40351900
    18  C          0.78787840       0.41640860       0.59648100
    19  H          0.17280000       0.50440000       0.44730000
    20  H          0.82720000       0.49560000       0.55270000
    21  C          0.28568150       0.65679140       0.23775900
    22  C          0.71431850       0.34320860       0.76224100
    23  C          0.33187150       0.81643140       0.27723900
    24  C          0.66812850       0.18356860       0.72276100
    25  H          0.37520000       0.89680000       0.23500000
    26  H          0.62480000       0.10320000       0.76500000
    27  C          0.30560150       0.62081150       0.12782900
    28  C          0.69439850       0.37918850       0.87217100
    29  C          0.05341150       0.77954130       0.51459900
    30  C          0.94658850       0.22045870       0.48540100
    31  C          0.19298150       0.45395140       0.05403900
    32  C          0.80701850       0.54604860       0.94596100
    33  C          0.22922160       0.54140140       0.30295100
    34  C          0.77077840       0.45859860       0.69704900
    35  H          0.20240000       0.43360000       0.27850000
    36  H          0.79760000       0.56640000       0.72150000
    37  C          0.31719140       0.78087130       0.64509900
    38  C          0.68280860       0.21912870       0.35490100
    39  C          0.03023160       0.33632150       0.05937100
    40  C          0.96976840       0.66367850       0.94062900
    41  H         -0.01570000       0.36070000       0.11170000
    42  H          0.01570000       0.63930000       0.88830000
    43  C          0.39293160       0.83367150       0.84843100
    44  C          0.60706840       0.16632850       0.15156900
    45  H          0.37370000       0.86750000       0.91240000
    46  H          0.62630000       0.13250000       0.08760000
    47  C          0.25413170       0.41727160       0.97308900
    48  C          0.74586830       0.58272840       0.02691100
    49  H          0.36180000       0.49810000       0.96630000
    50  H          0.63820000       0.50190000       0.03370000
    51  C          0.85379840       0.83626150       0.57740100
    52  C          0.14620160       0.16373850       0.42259900
    53  H          0.82990000       0.87710000       0.63640000
    54  H          0.17010000       0.12290000       0.36360000
    55  C          0.51375160       0.77853150       0.86234100
    56  C          0.48624840       0.22146850       0.13765900
    57  H          0.57880000       0.77630000       0.93540000
    58  H          0.42120000       0.22370000       0.06460000
    59  C          0.75981840       0.70651150       0.38528100
    60  C          0.24018160       0.29348850       0.61471900
    61  H          0.67240000       0.66060000       0.31160000
    62  H          0.32760000       0.33940000       0.68840000
    63  C          0.92108850       0.70935140       0.40732100
    64  C          0.07891150       0.29064860       0.59267900
    65  H          0.94160000       0.66320000       0.34890000
    66  H          0.05840000       0.33680000       0.65110000
    67  C          0.53766170       0.72691160       0.76771110
    68  C          0.46233830       0.27308840       0.23228890
    69  H          0.62250000       0.69210000       0.77640000
    70  H          0.37750000       0.30790000       0.22360000
    71  C          0.43891160       0.72548150       0.66014100
    72  C          0.56108840       0.27451850       0.33985900
    73  H          0.45440000       0.68640000       0.59620000
    74  H          0.54560000       0.31360000       0.40380000
    75  C          0.15953190       0.26464170       0.90277890
    76  C          0.84046810       0.73535830       0.09722110
    77  H          0.20330000       0.24060000       0.84890000
    78  H          0.79670000       0.75940000       0.15110000
    79  C          0.93540820       0.18360160       0.98817890
    80  C          0.06459180       0.81639840       0.01182110
    81  H          0.82500000       0.10380000      -0.00770000
    82  H          0.17500000       0.89620000       0.00770000
    83  C          0.72530840       0.77005160       0.46989110
    84  C          0.27469160       0.22994840       0.53010890
    85  H          0.61520000       0.76830000       0.45450000
    86  H          0.38480000       0.23170000       0.54550000
    87  C          0.00089190       0.14694160       0.91107890
    88  C         -0.00089190       0.85305840       0.08892110
    89  H          0.93710000       0.04140000       0.86410000
    90  H          0.06290000       0.95860000       0.13590000
