data_YIQXUU02
_symmetry_space_group_name_H-M    'P1'
_symmetry_Int_Tables_number       1
loop_
_symmetry_equiv_pos_site_id
_symmetry_equiv_pos_as_xyz
1 x,y,z
_cell_length_a                   11.181112
_cell_length_b                   10.635213
_cell_length_c                   16.385217
_cell_angle_alpha                90.0
_cell_angle_beta                 101.0563
_cell_angle_gamma                90.0
loop_
_atom_site_label
_atom_site_type_symbol
_atom_site_fract_x
_atom_site_fract_y
_atom_site_fract_z
     1  S          0.47689400       0.35864500       0.08765300
     2  S          0.52310600       0.85864500       0.41234700
     3  S          0.52310600       0.64135500       0.91234700
     4  S          0.47689400       0.14135500       0.58765300
     5  N          0.23725120       0.48056120       0.03302800
     6  N          0.76274880       0.98056120       0.46697200
     7  N          0.76274880       0.51943880       0.96697200
     8  N          0.23725120       0.01943880       0.53302800
     9  O          0.05628120       0.65874120       0.65631800
    10  O          0.94371880       0.15874120       0.84368200
    11  O          0.94371880       0.34125880       0.34368200
    12  O          0.05628120       0.84125880       0.15631800
    13  C          0.18258130       0.50551140       0.95044900
    14  C          0.81741870       0.00551140       0.54955100
    15  C          0.81741870       0.49448860       0.04955100
    16  C          0.18258130      -0.00551140       0.45044900
    17  C          0.22914140       0.36059140       0.07036900
    18  C          0.77085860       0.86059140       0.42963100
    19  C          0.77085860       0.63940860       0.92963100
    20  C          0.22914140       0.13940860       0.57036900
    21  C          0.14927140       0.64269160       0.83073100
    22  C          0.85072860       0.14269160       0.66926900
    23  C          0.85072860       0.35730840       0.16926900
    24  C          0.14927140       0.85730840       0.33073100
    25  C          0.06582140       0.55922150       0.78575900
    26  C          0.93417860       0.05922150       0.71424100
    27  C          0.93417860       0.44077850       0.21424100
    28  C          0.06582140       0.94077850       0.28575900
    29  C          0.04681150       0.44574150       0.82357100
    30  C          0.95318850       0.94574150       0.67642900
    31  C          0.95318850       0.55425850       0.17642900
    32  C          0.04681150       0.05425850       0.32357100
    33  C          0.20525140       0.61813160       0.91154100
    34  C          0.79474860       0.11813160       0.58845900
    35  C          0.79474860       0.38186840       0.08845900
    36  C          0.20525140       0.88186840       0.41154100
    37  C          0.11888150       0.31184170       0.08250100
    38  C          0.88111850       0.81184170       0.41749900
    39  C          0.88111850       0.68815830       0.91749900
    40  C          0.11888150       0.18815830       0.58250100
    41  C          0.10545150       0.41763160       0.90330100
    42  C          0.89454850       0.91763160       0.59669900
    43  C          0.89454850       0.58236840       0.09669900
    44  C          0.10545150       0.08236840       0.40330100
    45  C          0.32705150       0.56295160       0.07903100
    46  C          0.67294850       0.06295160       0.42096900
    47  C          0.67294850       0.43704840       0.92096900
    48  C          0.32705150       0.93704840       0.57903100
    49  C          0.33121170       0.17918170       0.13843110
    50  C          0.66878830       0.67918170       0.36156890
    51  C          0.66878830       0.82081830       0.86156890
    52  C          0.33121170       0.32081830       0.63843110
    53  C          0.11535170       0.19611180       0.12024110
    54  C          0.88464830       0.69611180       0.37975890
    55  C          0.88464830       0.80388820       0.87975890
    56  C          0.11535170       0.30388820       0.62024110
    57  C          0.00504150       0.59186150       0.69971100
    58  C         -0.00504150       0.09186150       0.80028900
    59  C         -0.00504150       0.40813850       0.30028900
    60  C          0.00504150       0.90813850       0.19971100
    61  C          0.33594130       0.29439150       0.09934900
    62  C          0.66405870       0.79439150       0.40065100
    63  C          0.66405870       0.70560850       0.90065100
    64  C          0.33594130       0.20560850       0.59934900
    65  C          0.88037850       0.54291150       0.66537100
    66  C          0.11962150       0.04291150       0.83462900
    67  C          0.11962150       0.45708850       0.33462900
    68  C          0.88037850       0.95708850       0.16537100
    69  C          0.44453150       0.51730170       0.10550100
    70  C          0.55546850       0.01730170       0.39449900
    71  C          0.55546850       0.48269830       0.89449900
    72  C          0.44453150       0.98269830       0.60550100
    73  C          0.22077180       0.12988180       0.14771110
    74  C          0.77922820       0.62988180       0.35228890
    75  C          0.77922820       0.87011820       0.85228890
    76  C          0.22077180       0.37011820       0.64771110
    77  C          0.84568000       0.52786190       0.57972110
    78  C          0.15432000       0.02786190       0.92027890
    79  C          0.15432000       0.47213810       0.42027890
    80  C          0.84568000       0.97213810       0.07972110
    81  C          0.79666840       0.51467180       0.71519110
    82  C          0.20333160       0.01467180       0.78480890
    83  C          0.20333160       0.48532820       0.28480890
    84  C          0.79666840       0.98532820       0.21519110
    85  C          0.29762000       0.68345190       0.10012120
    86  C          0.70238000       0.18345190       0.39987880
    87  C          0.70238000       0.31654810       0.89987880
    88  C          0.29762000       0.81654810       0.60012120
    89  C          0.68140810       0.47162000       0.68070140
    90  C          0.31859190       0.97162000       0.81929860
    91  C          0.31859190       0.52838000       0.31929860
    92  C          0.68140810       0.02838000       0.18070140
    93  C          0.64918000       0.45492000       0.59601140
    94  C          0.35082000       0.95492000       0.90398860
    95  C          0.35082000       0.54508000       0.40398860
    96  C          0.64918000       0.04508000       0.09601140
    97  C          0.53502000       0.59652000       0.14745120
    98  C          0.46498000       0.09652000       0.35254880
    99  C          0.46498000       0.40348000       0.85254880
   100  C          0.53502000       0.90348000       0.64745120
   101  C          0.73108000       0.48312000       0.54607130
   102  C          0.26892000       0.98312000       0.95392870
   103  C          0.26892000       0.51688000       0.45392870
   104  C          0.73108000       0.01688000       0.04607130
   105  C          0.38933000       0.76112000       0.14139140
   106  C          0.61067000       0.26112000       0.35860860
   107  C          0.61067000       0.23888000       0.85860860
   108  C          0.38933000       0.73888000       0.64139140
   109  C          0.50653000       0.71842000       0.16309140
   110  C          0.49347000       0.21842000       0.33690860
   111  C          0.49347000       0.28158000       0.83690860
   112  C          0.50653000       0.78158000       0.66309140
   113  H          0.16671600       0.71621900       0.80581100
   114  H          0.83328400       0.21621900       0.69418900
   115  H          0.83328400       0.28378100       0.19418900
   116  H          0.16671600       0.78378100       0.30581100
   117  H          0.04941800       0.35921800       0.06451100
   118  H          0.95058200       0.85921800       0.43548900
   119  H          0.95058200       0.64078200       0.93548900
   120  H          0.04941800       0.14078200       0.56451100
   121  H          0.25971700       0.68111700       0.94231100
   122  H          0.74028300       0.18111700       0.55768900
   123  H          0.74028300       0.31888300       0.05768900
   124  H          0.25971700       0.81888300       0.44231100
   125  H          0.90588200       0.54561900       0.54531300
   126  H          0.09411800       0.04561900       0.95468700
   127  H          0.09411800       0.45438100       0.45468700
   128  H          0.90588200       0.95438100       0.04531300
   129  H          0.81578100       0.52720000       0.77371400
   130  H          0.18421900       0.02720000       0.72628600
   131  H          0.18421900       0.47280000       0.22628600
   132  H          0.81578100       0.97280000       0.27371400
   133  H          0.09311600       0.33761800       0.92601100
   134  H          0.90688400       0.83761800       0.57398900
   135  H          0.90688400       0.66238200       0.07398900
   136  H          0.09311600       0.16238200       0.42601100
   137  H         -0.00811800       0.38111900       0.79481100
   138  H          0.00811800       0.88111900       0.70518900
   139  H          0.00811800       0.61888100       0.20518900
   140  H         -0.00811800       0.11888100       0.29481100
   141  H          0.62280000       0.45520000       0.71691400
   142  H          0.37720000       0.95520000       0.78308600
   143  H          0.37720000       0.54480000       0.28308600
   144  H          0.62280000       0.04480000       0.21691400
   145  H          0.21920000       0.05220000       0.17591500
   146  H          0.78080000       0.55220000       0.32408500
   147  H          0.78080000       0.94780000       0.82408500
   148  H          0.21920000       0.44780000       0.67591500
   149  H          0.71180000       0.46830000       0.48761700
   150  H          0.28820000       0.96830000       0.01238300
   151  H          0.28820000       0.53170000       0.51238300
   152  H          0.71180000       0.03170000       0.98761700
   153  H          0.57020000       0.77230000       0.19111500
   154  H          0.42980000       0.27230000       0.30888500
   155  H          0.42980000       0.22770000       0.80888500
   156  H          0.57020000       0.72770000       0.69111500
   157  H          0.40420000       0.13520000       0.15811200
   158  H          0.59580000       0.63520000       0.34188800
   159  H          0.59580000       0.86480000       0.84188800
   160  H          0.40420000       0.36480000       0.65811200
   161  H          0.56580000       0.42620000       0.57081400
   162  H          0.43420000       0.92620000       0.92918600
   163  H          0.43420000       0.57380000       0.42918600
   164  H          0.56580000       0.07380000       0.07081400
   165  H          0.21520000       0.70920000       0.08481300
   166  H          0.78480000       0.20920000       0.41518700
   167  H          0.78480000       0.29080000       0.91518700
   168  H          0.21520000       0.79080000       0.58481300
   169  H          0.61920000       0.56120000       0.16431400
   170  H          0.38080000       0.06120000       0.33568600
   171  H          0.38080000       0.43880000       0.83568600
   172  H          0.61920000       0.93880000       0.66431400
   173  H          0.03701900       0.16451900       0.12551200
   174  H          0.96298100       0.66451900       0.37448800
   175  H          0.96298100       0.83548100       0.87448800
   176  H          0.03701900       0.33548100       0.62551200
   177  H          0.37020000       0.84230000       0.15511600
   178  H          0.62980000       0.34230000       0.34488400
   179  H          0.62980000       0.15770000       0.84488400
   180  H          0.37020000       0.65770000       0.65511600
