data_YIVRIF
_symmetry_space_group_name_H-M    'P1'
_symmetry_Int_Tables_number       1
loop_
_symmetry_equiv_pos_site_id
_symmetry_equiv_pos_as_xyz
1 x,y,z
_cell_length_a                   10.5352
_cell_length_b                   21.6854
_cell_length_c                   9.692319
_cell_angle_alpha                90.0
_cell_angle_beta                 103.073
_cell_angle_gamma                90.0
loop_
_atom_site_label
_atom_site_type_symbol
_atom_site_fract_x
_atom_site_fract_y
_atom_site_fract_z
     1  O          0.35888110       0.56147500       0.77261120
     2  O          0.64111890       0.06147500       0.72738880
     3  O          0.64111890       0.43852500       0.22738880
     4  O          0.35888110       0.93852500       0.27261120
     5  C          0.14794150       0.68349700       0.82325150
     6  C          0.85205850       0.18349700       0.67674850
     7  C          0.85205850       0.31650300       0.17674850
     8  C          0.14794150       0.81650300       0.32325150
     9  H          0.06240000       0.69000000       0.83020000
    10  H          0.93760000       0.19000000       0.66980000
    11  H          0.93760000       0.31000000       0.16980000
    12  H          0.06240000       0.81000000       0.33020000
    13  C          0.09329150       0.57007700       0.80165150
    14  C          0.90670850       0.07007700       0.69834850
    15  C          0.90670850       0.42992300       0.19834850
    16  C          0.09329150       0.92992300       0.30165150
    17  C          0.18656140       0.62499700       0.80902150
    18  C          0.81343860       0.12499700       0.69097850
    19  C          0.81343860       0.37500300       0.19097850
    20  C          0.18656140       0.87500300       0.30902150
    21  C          0.32203150       0.61367700       0.79510150
    22  C          0.67796850       0.11367700       0.70489850
    23  C          0.67796850       0.38632300       0.20489850
    24  C          0.32203150       0.88632300       0.29510150
    25  C          0.23174150       0.73660700       0.82837150
    26  C          0.76825850       0.23660700       0.67162850
    27  C          0.76825850       0.26339300       0.17162850
    28  C          0.23174150       0.76339300       0.32837150
    29  C          0.26404150       0.85055700       0.80936150
    30  C          0.73595850       0.35055700       0.69063850
    31  C          0.73595850       0.14944300       0.19063850
    32  C          0.26404150       0.64944300       0.30936150
    33  C          0.41257150       0.66716700       0.80895150
    34  C          0.58742850       0.16716700       0.69104850
    35  C          0.58742850       0.33283300       0.19104850
    36  C          0.41257150       0.83283300       0.30895150
    37  C          0.18628150       0.79604700       0.83208150
    38  C          0.81371850       0.29604700       0.66791850
    39  C          0.81371850       0.20395300       0.16791850
    40  C          0.18628150       0.70395300       0.33208150
    41  C          0.36568150       0.72401700       0.82519160
    42  C          0.63431850       0.22401700       0.67480840
    43  C          0.63431850       0.27598300       0.17480840
    44  C          0.36568150       0.77598300       0.32519160
    45  H          0.42320000       0.75710000       0.83490000
    46  H          0.57680000       0.25710000       0.66510000
    47  H          0.57680000       0.24290000       0.16510000
    48  H          0.42320000       0.74290000       0.33490000
    49  C          0.96001850       0.59022700       0.82289170
    50  C          0.03998150       0.09022700       0.67710830
    51  C          0.03998150       0.40977300       0.17710830
    52  C          0.96001850       0.90977300       0.32289170
    53  H          0.97050000       0.61070000       0.91260000
    54  H          0.02950000       0.11070000       0.58740000
    55  H          0.02950000       0.38930000       0.08740000
    56  H          0.97050000       0.88930000       0.41260000
    57  H          0.90540000       0.55470000       0.82120000
    58  H          0.09460000       0.05470000       0.67880000
    59  H          0.09460000       0.44530000       0.17880000
    60  H          0.90540000       0.94530000       0.32120000
    61  H          0.92040000       0.61790000       0.74830000
    62  H          0.07960000       0.11790000       0.75170000
    63  H          0.07960000       0.38210000       0.25170000
    64  H          0.92040000       0.88210000       0.24830000
    65  C          0.05576150       0.81027700       0.85851160
    66  C          0.94423850       0.31027700       0.64148840
    67  C          0.94423850       0.18972300       0.14148840
    68  C          0.05576150       0.68972300       0.35851160
    69  C          0.33211160       0.85307700       0.70176160
    70  C          0.66788840       0.35307700       0.79823840
    71  C          0.66788840       0.14692300       0.29823840
    72  C          0.33211160       0.64692300       0.20176160
    73  H          0.32750000       0.82010000       0.63950000
    74  H          0.67250000       0.32010000       0.86050000
    75  H          0.67250000       0.17990000       0.36050000
    76  H          0.32750000       0.67990000       0.13950000
    77  C          0.26887160       0.90230700       0.89694170
    78  C          0.73112840       0.40230700       0.60305830
    79  C          0.73112840       0.09769300       0.10305830
    80  C          0.26887160       0.59769300       0.39694170
    81  H          0.22090000       0.90250000       0.96660000
    82  H          0.77910000       0.40250000       0.53340000
    83  H          0.77910000       0.09750000       0.03340000
    84  H          0.22090000       0.59750000       0.46660000
    85  C          0.55521150       0.65631700       0.80336170
    86  C          0.44478850       0.15631700       0.69663830
    87  C          0.44478850       0.34368300       0.19663830
    88  C          0.55521150       0.84368300       0.30336170
    89  C          0.85573840       0.86917700       0.79929180
    90  C          0.14426160       0.36917700       0.70070820
    91  C          0.14426160       0.13082300       0.20070820
    92  C          0.85573840       0.63082300       0.29929180
    93  H          0.80260000       0.89730000       0.74070000
    94  H          0.19740000       0.39730000       0.75930000
    95  H          0.19740000       0.10270000       0.25930000
    96  H          0.80260000       0.60270000       0.24070000
    97  C          0.14930160       0.52314700       0.91916160
    98  C          0.85069840       0.02314700       0.58083840
    99  C          0.85069840       0.47685300       0.08083840
   100  C          0.14930160       0.97685300       0.41916160
   101  H          0.15940000       0.54250000       0.01000000
   102  H          0.84060000       0.04250000       0.49000000
   103  H          0.84060000       0.45750000      -0.01000000
   104  H          0.15940000       0.95750000       0.51000000
   105  H          0.23250000       0.50890000       0.90760000
   106  H          0.76750000       0.00890000       0.59240000
   107  H          0.76750000       0.49110000       0.09240000
   108  H          0.23250000       0.99110000       0.40760000
   109  H          0.09080000       0.48880000       0.91300000
   110  H          0.90920000       0.98880000       0.58700000
   111  H          0.90920000       0.51120000       0.08700000
   112  H          0.09080000       0.01120000       0.41300000
   113  C          0.89398840       0.80071800      -0.00214830
   114  C          0.10601160       0.30071800       0.50214830
   115  C          0.10601160       0.19928200       0.00214830
   116  C          0.89398840       0.69928200       0.49785170
   117  H          0.86680000       0.78310000       0.07380000
   118  H          0.13320000       0.28310000       0.42620000
   119  H          0.13320000       0.21690000       0.92620000
   120  H          0.86680000       0.71690000       0.57380000
   121  C          0.81478840       0.84298800       0.91229180
   122  C          0.18521160       0.34298800       0.58770820
   123  C          0.18521160       0.15701200       0.08770820
   124  C          0.81478840       0.65701200       0.41229180
   125  H          0.73470000       0.85380000       0.93040000
   126  H          0.26530000       0.35380000       0.56960000
   127  H          0.26530000       0.14620000       0.06960000
   128  H          0.73470000       0.64620000       0.43040000
   129  C          0.07095160       0.53868700       0.65601160
   130  C          0.92904840       0.03868700       0.84398840
   131  C          0.92904840       0.46131300       0.34398840
   132  C          0.07095160       0.96131300       0.15601160
   133  H          0.01060000       0.50520000       0.65210000
   134  H         -0.01060000       0.00520000       0.84790000
   135  H         -0.01060000       0.49480000       0.34790000
   136  H          0.01060000      -0.00520000       0.15210000
   137  H          0.15230000       0.52310000       0.64160000
   138  H          0.84770000       0.02310000       0.85840000
   139  H          0.84770000       0.47690000       0.35840000
   140  H          0.15230000       0.97690000       0.14160000
   141  H          0.03600000       0.56810000       0.58330000
   142  H          0.96400000       0.06810000       0.91670000
   143  H          0.96400000       0.43190000       0.41670000
   144  H          0.03600000       0.93190000       0.08330000
   145  C          0.34363170       0.95307800       0.88159180
   146  C          0.65636830       0.45307800       0.61840820
   147  C          0.65636830       0.04692200       0.11840820
   148  C          0.34363170       0.54692200       0.38159180
   149  H          0.34670000       0.98680000       0.94150000
   150  H          0.65330000       0.48680000       0.55850000
   151  H          0.65330000       0.01320000       0.05850000
   152  H          0.34670000       0.51320000       0.44150000
   153  C          0.01313150       0.78435700       0.97168160
   154  C         -0.01313150       0.28435700       0.52831840
   155  C         -0.01313150       0.21564300       0.02831840
   156  C          0.01313150       0.71564300       0.47168160
   157  H          0.06530000       0.75580000       0.03010000
   158  H          0.93470000       0.25580000       0.46990000
   159  H          0.93470000       0.24420000       0.96990000
   160  H          0.06530000       0.74420000       0.53010000
   161  C          0.97521840       0.85356700       0.77357170
   162  C          0.02478160       0.35356700       0.72642830
   163  C          0.02478160       0.14643300       0.22642830
   164  C          0.97521840       0.64643300       0.27357170
   165  H          0.00270000       0.87200000       0.69880000
   166  H         -0.00270000       0.37200000       0.80120000
   167  H         -0.00270000       0.12800000       0.30120000
   168  H          0.00270000       0.62800000       0.19880000
   169  C          0.62175160       0.61189900       0.92147180
   170  C          0.37824840       0.11189900       0.57852820
   171  C          0.37824840       0.38810100       0.07852820
   172  C          0.62175160       0.88810100       0.42147180
   173  H          0.57320000       0.57410000       0.91400000
   174  H          0.42680000       0.07410000       0.58600000
   175  H          0.42680000       0.42590000       0.08600000
   176  H          0.57320000       0.92590000       0.41400000
   177  H          0.62470000       0.63050000       0.01210000
   178  H          0.37530000       0.13050000       0.48790000
   179  H          0.37530000       0.36950000      -0.01210000
   180  H          0.62470000       0.86950000       0.51210000
   181  H          0.70880000       0.60340000       0.91200000
   182  H          0.29120000       0.10340000       0.58800000
   183  H          0.29120000       0.39660000       0.08800000
   184  H          0.70880000       0.89660000       0.41200000
   185  C          0.41411170       0.95381800       0.77702180
   186  C          0.58588830       0.45381800       0.72297820
   187  C          0.58588830       0.04618200       0.22297820
   188  C          0.41411170       0.54618200       0.27702180
   189  H          0.46620000       0.98750000       0.76780000
   190  H          0.53380000       0.48750000       0.73220000
   191  H          0.53380000       0.01250000       0.23220000
   192  H          0.46620000       0.51250000       0.26780000
   193  C          0.56238160       0.63025800       0.65784170
   194  C          0.43761840       0.13025800       0.84215830
   195  C          0.43761840       0.36974200       0.34215830
   196  C          0.56238160       0.86974200       0.15784170
   197  H          0.52430000       0.65920000       0.58530000
   198  H          0.47570000       0.15920000       0.91470000
   199  H          0.47570000       0.34080000       0.41470000
   200  H          0.52430000       0.84080000       0.08530000
   201  H          0.51550000       0.59200000       0.64210000
   202  H          0.48450000       0.09200000       0.85790000
   203  H          0.48450000       0.40800000       0.35790000
   204  H          0.51550000       0.90800000       0.14210000
   205  H          0.65180000       0.62330000       0.65530000
   206  H          0.34820000       0.12330000       0.84470000
   207  H          0.34820000       0.37670000       0.34470000
   208  H          0.65180000       0.87670000       0.15530000
   209  C          0.40636170       0.90405800       0.68653180
   210  C          0.59363830       0.40405800       0.81346820
   211  C          0.59363830       0.09594200       0.31346820
   212  C          0.40636170       0.59594200       0.18653180
   213  H          0.45160000       0.90490000       0.61460000
   214  H          0.54840000       0.40490000       0.88540000
   215  H          0.54840000       0.09510000       0.38540000
   216  H          0.45160000       0.59510000       0.11460000
   217  C          0.63304170       0.71652900       0.82362000
   218  C          0.36695830       0.21652900       0.67638000
   219  C          0.36695830       0.28347100       0.17638000
   220  C          0.63304170       0.78347100       0.32362000
   221  H          0.72190000       0.70820000       0.82090000
   222  H          0.27810000       0.20820000       0.67910000
   223  H          0.27810000       0.29180000       0.17910000
   224  H          0.72190000       0.79180000       0.32090000
   225  H          0.63000000       0.73440000       0.91340000
   226  H          0.37000000       0.23440000       0.58660000
   227  H          0.37000000       0.26560000       0.08660000
   228  H          0.63000000       0.76560000       0.41340000
   229  H          0.59600000       0.74480000       0.74910000
   230  H          0.40400000       0.24480000       0.75090000
   231  H          0.40400000       0.25520000       0.25090000
   232  H          0.59600000       0.75520000       0.24910000
