data_YIVRIF02
_symmetry_space_group_name_H-M    'P1'
_symmetry_Int_Tables_number       1
loop_
_symmetry_equiv_pos_site_id
_symmetry_equiv_pos_as_xyz
1 x,y,z
_cell_length_a                   5.951412
_cell_length_b                   20.4164
_cell_length_c                   9.133818
_cell_angle_alpha                90.0
_cell_angle_beta                 94.533
_cell_angle_gamma                90.0
loop_
_atom_site_label
_atom_site_type_symbol
_atom_site_fract_x
_atom_site_fract_y
_atom_site_fract_z
     1  O          0.23906000       0.97912860       0.24083000
     2  O          0.76094000       0.47912860       0.75917000
     3  C          0.33816000       0.14852000       0.18764000
     4  C          0.66184000       0.64852000       0.81236000
     5  H          0.29830000       0.18200000       0.12180000
     6  H          0.70170000       0.68200000       0.87820000
     7  C          0.49836000       0.16279190       0.31025000
     8  C          0.50164000       0.66279190       0.68975000
     9  C          0.07446000       0.07552000       0.03054000
    10  C          0.92554000       0.57552000       0.96946000
    11  C          0.54556000       0.11100190       0.41474000
    12  C          0.45444000       0.61100190       0.58526000
    13  H          0.63880000       0.12010000       0.49870000
    14  H          0.36120000       0.62010000       0.50130000
    15  C          0.53117000       0.27799190       0.22335000
    16  C          0.46883000       0.77799190       0.77665000
    17  C          0.24326000       0.08953190       0.16304000
    18  C          0.75674000       0.58953190       0.83696000
    19  C          0.30826000       0.03494190       0.26455000
    20  C          0.69174000       0.53494190       0.73545000
    21  C          0.46096000       0.04964190       0.39714000
    22  C          0.53904000       0.54964190       0.60286000
    23  C          0.78126000       0.23866190       0.44184000
    24  C          0.21874000       0.73866190       0.55816000
    25  C          0.59866000       0.22342000       0.32554000
    26  C          0.40134000       0.72342000       0.67446000
    27  C          0.51996000      -0.00480180       0.50844000
    28  C          0.48004000       0.49519820       0.49156000
    29  C          0.97047000       0.19932000       0.47095000
    30  C          0.02953000       0.69932000       0.52905000
    31  H         -0.01400000       0.16130000       0.41660000
    32  H          0.01400000       0.66130000       0.58340000
    33  C          0.30507000       0.96798000       0.56825000
    34  C          0.69493000       0.46798000       0.43175000
    35  H          0.21010000       0.94930000       0.48920000
    36  H          0.78990000       0.44930000       0.51080000
    37  H          0.22600000       0.00280000       0.61280000
    38  H          0.77400000       0.50280000       0.38720000
    39  H          0.34460000       0.93480000       0.64020000
    40  H          0.65540000       0.43480000       0.35980000
    41  C          0.67757000       0.29942000       0.12215000
    42  C          0.32243000       0.79942000       0.87785000
    43  H          0.82000000       0.28070000       0.12130000
    44  H          0.18000000       0.78070000       0.87870000
    45  C          0.76597000       0.29592000       0.52355000
    46  C          0.23403000       0.79592000       0.47645000
    47  H          0.64330000       0.32360000       0.50410000
    48  H          0.35670000       0.82360000       0.49590000
    49  C          0.32087000       0.30812000       0.22465000
    50  C          0.67913000       0.80812000       0.77535000
    51  H          0.22060000       0.29470000       0.29180000
    52  H          0.77940000       0.79470000       0.70820000
    53  C          0.85253000       0.05033000       0.08325000
    54  C          0.14747000       0.55033000       0.91675000
    55  H          0.88070000       0.01140000       0.14070000
    56  H          0.11930000       0.51140000       0.85930000
    57  H          0.74980000       0.04040000      -0.00020000
    58  H          0.25020000       0.54040000       0.00020000
    59  H          0.78810000       0.08330000       0.14200000
    60  H          0.21190000       0.58330000       0.85800000
    61  C          0.13467000       0.21592000       0.57925000
    62  C          0.86533000       0.71592000       0.42075000
    63  H          0.25980000       0.18900000       0.59730000
    64  H          0.74020000       0.68900000       0.40270000
    65  C          0.26098000       0.35772000       0.12635000
    66  C          0.73902000       0.85772000       0.87365000
    67  H          0.12100000       0.37780000       0.12890000
    68  H          0.87900000       0.87780000       0.87110000
    69  C          0.67037000       0.02082000       0.63965000
    70  C          0.32963000       0.52082000       0.36035000
    71  H          0.59240000       0.05470000       0.68800000
    72  H          0.40760000       0.55470000       0.31200000
    73  H          0.80700000       0.03820000       0.60590000
    74  H          0.19300000       0.53820000       0.39410000
    75  H          0.70590000       0.98560000       0.70710000
    76  H          0.29410000       0.48560000       0.29290000
    77  C          0.93058000       0.31212000       0.63355000
    78  C          0.06942000       0.81212000       0.36645000
    79  H          0.91640000       0.35000000       0.68850000
    80  H          0.08360000       0.85000000       0.31150000
    81  C          0.11547000       0.27192000       0.66075000
    82  C          0.88453000       0.77192000       0.33925000
    83  H          0.22660000       0.28270000       0.73410000
    84  H          0.77340000       0.78270000       0.26590000
    85  C          0.40438000       0.37782000       0.02505000
    86  C          0.59562000       0.87782000       0.97495000
    87  H          0.36210000       0.41090000       0.95870000
    88  H          0.63790000       0.91090000       0.04130000
    89  C          0.17227000       0.02503000       0.93095000
    90  C          0.82773000       0.52503000       0.06905000
    91  H          0.31030000       0.04140000       0.89740000
    92  H          0.68970000       0.54140000       0.10260000
    93  H          0.06660000       0.01670000       0.84820000
    94  H          0.93340000       0.51670000       0.15180000
    95  H          0.20150000       0.98510000       0.98460000
    96  H          0.79850000       0.48510000       0.01540000
    97  C          0.64907000       0.94063810       0.43485000
    98  C          0.35093000       0.44063810       0.56515000
    99  H          0.78000000       0.95880000       0.39520000
   100  H          0.22000000       0.45880000       0.60480000
   101  H          0.55320000       0.92130000       0.35720000
   102  H          0.44680000       0.42130000       0.64280000
   103  H          0.69450000       0.90780000       0.50630000
   104  H          0.30550000       0.40780000       0.49370000
   105  C          0.61288000       0.34802000       0.02286000
   106  C          0.38712000       0.84802000       0.97714000
   107  H          0.71030000       0.36090000       0.95350000
   108  H          0.28970000       0.86090000       0.04650000
   109  C          0.02421000       0.13733000       0.94034000
   110  C         -0.02421000       0.63733000       0.05966000
   111  H          0.91860000       0.12730000       0.85850000
   112  H          0.08140000       0.62730000       0.14150000
   113  H          0.16120000       0.15360000       0.90500000
   114  H          0.83880000       0.65360000       0.09500000
   115  H          0.96120000       0.17000000       0.00070000
   116  H          0.03880000       0.67000000      -0.00070000
