data_YIVRIF01
_symmetry_space_group_name_H-M    'P1'
_symmetry_Int_Tables_number       1
loop_
_symmetry_equiv_pos_site_id
_symmetry_equiv_pos_as_xyz
1 x,y,z
_cell_length_a                   10.1872
_cell_length_b                   17.5174
_cell_length_c                   12.3223
_cell_angle_alpha                90.0
_cell_angle_beta                 95.413
_cell_angle_gamma                90.0
loop_
_atom_site_label
_atom_site_type_symbol
_atom_site_fract_x
_atom_site_fract_y
_atom_site_fract_z
     1  O          0.42752900       0.07920600       0.83166800
     2  O          0.57247100       0.57920600       0.66833200
     3  O          0.57247100       0.92079400       0.16833200
     4  O          0.42752900       0.42079400       0.33166800
     5  C          0.06583120       0.10136700       0.65938100
     6  C          0.93416880       0.60136700       0.84061900
     7  C          0.93416880       0.89863300       0.34061900
     8  C          0.06583120       0.39863300       0.15938100
     9  C          0.28329120       0.15720700       0.71713100
    10  C          0.71670880       0.65720700       0.78286900
    11  C          0.71670880       0.84279300       0.28286900
    12  C          0.28329120       0.34279300       0.21713100
    13  C          0.16583120       0.15993700       0.65702100
    14  C          0.83416880       0.65993700       0.84297900
    15  C          0.83416880       0.84006300       0.34297900
    16  C          0.16583120       0.34006300       0.15702100
    17  H          0.14800000       0.20170000       0.61150000
    18  H          0.85200000       0.70170000       0.88850000
    19  H          0.85200000       0.79830000       0.38850000
    20  H          0.14800000       0.29830000       0.11150000
    21  C          0.93147880       0.15942700       0.49993100
    22  C          0.06852120       0.65942700       0.00006900
    23  C          0.06852120       0.84057300       0.50006900
    24  C          0.93147880       0.34057300      -0.00006900
    25  C          0.31546120       0.08902800       0.78674100
    26  C          0.68453880       0.58902800       0.71325900
    27  C          0.68453880       0.91097200       0.21325900
    28  C          0.31546120       0.41097200       0.28674100
    29  C          0.83663890       0.05321700       0.60386100
    30  C          0.16336110       0.55321700       0.89613900
    31  C          0.16336110       0.94678300       0.39613900
    32  C          0.83663890       0.44678300       0.10386100
    33  C          0.66420870       0.97263300       0.51786110
    34  C          0.33579130       0.47263300       0.98213890
    35  C          0.33579130       0.02736700       0.48213890
    36  C          0.66420870       0.52736700       0.01786110
    37  H          0.62270000       0.95030000       0.45530000
    38  H          0.37730000       0.45030000       0.04470000
    39  H          0.37730000       0.04970000       0.54470000
    40  H          0.62270000       0.54970000       0.95530000
    41  C          0.95013880       0.10445700       0.59200100
    42  C          0.04986120       0.60445700       0.90799900
    43  C          0.04986120       0.89554300       0.40799900
    44  C          0.95013880       0.39554300       0.09200100
    45  C          0.02537130       0.16747800       0.42531100
    46  C          0.97462870       0.66747800       0.07468900
    47  C          0.97462870       0.83252200       0.57468900
    48  C          0.02537130       0.33252200       0.92531100
    49  H          0.10230000       0.13860000       0.43350000
    50  H          0.89770000       0.63860000       0.06650000
    51  H          0.89770000       0.86140000       0.56650000
    52  H          0.10230000       0.36140000       0.93350000
    53  C          0.81574880       0.20258700       0.48432100
    54  C          0.18425120       0.70258700       0.01567900
    55  C          0.18425120       0.79741300       0.51567900
    56  C          0.81574880       0.29741300       0.98432100
    57  H          0.75100000       0.19700000       0.53220000
    58  H          0.24900000       0.69700000       0.96780000
    59  H          0.24900000       0.80300000       0.46780000
    60  H          0.75100000       0.30300000       0.03220000
    61  C          0.38544120       0.22148800       0.71577110
    62  C          0.61455880       0.72148800       0.78422890
    63  C          0.61455880       0.77851200       0.28422890
    64  C          0.38544120       0.27851200       0.21577110
    65  C          0.77071880       0.02039700       0.51041100
    66  C          0.22928120       0.52039700      -0.01041100
    67  C          0.22928120       0.97960300       0.48958900
    68  C          0.77071880       0.47960300       0.01041100
    69  H          0.79910000       0.03090000       0.44240000
    70  H          0.20090000       0.53090000       0.05760000
    71  H          0.20090000       0.96910000       0.55760000
    72  H          0.79910000       0.46910000       0.94240000
    73  C          0.09367120       0.03990700       0.73640100
    74  C          0.90632880       0.53990700       0.76359900
    75  C          0.90632880       0.96009300       0.26359900
    76  C          0.09367120       0.46009300       0.23640100
    77  H          0.02870000       0.00330000       0.74290000
    78  H          0.97130000       0.50330000       0.75710000
    79  H          0.97130000      -0.00330000       0.25710000
    80  H          0.02870000       0.49670000       0.24290000
    81  C          0.68100870       0.99098200       0.71130110
    82  C          0.31899130       0.49098200       0.78869890
    83  C          0.31899130       0.00901800       0.28869890
    84  C          0.68100870       0.50901800       0.21130110
    85  H          0.65000000       0.98160000       0.77860000
    86  H          0.35000000       0.48160000       0.72140000
    87  H          0.35000000       0.01840000       0.22140000
    88  H          0.65000000       0.51840000       0.27860000
    89  C          0.20886120       0.03271700       0.79936100
    90  C          0.79113880       0.53271700       0.70063900
    91  C          0.79113880       0.96728300       0.20063900
    92  C          0.20886120       0.46728300       0.29936100
    93  C          0.23487130       0.96626200       0.87959100
    94  C          0.76512870       0.46626200       0.62040900
    95  C          0.76512870       0.03373800       0.12040900
    96  C          0.23487130       0.53373800       0.37959100
    97  C          0.89066860       0.26120800       0.32577110
    98  C          0.10933140       0.76120800       0.17422890
    99  C          0.10933140       0.73879200       0.67422890
   100  C          0.89066860       0.23879200       0.82577110
   101  H          0.87740000       0.29520000       0.26790000
   102  H          0.12260000       0.79520000       0.23210000
   103  H          0.12260000       0.70480000       0.73210000
   104  H          0.87740000       0.20480000       0.76790000
   105  C          0.61902870       0.95792200       0.61848110
   106  C          0.38097130       0.45792200       0.88151890
   107  C          0.38097130       0.04207800       0.38151890
   108  C          0.61902870       0.54207800       0.11848110
   109  H          0.54710000       0.92590000       0.62340000
   110  H          0.45290000       0.42590000       0.87660000
   111  H          0.45290000       0.07410000       0.37660000
   112  H          0.54710000       0.57410000       0.12340000
   113  C          0.00489140       0.21815800       0.33913110
   114  C         -0.00489140       0.71815800       0.16086890
   115  C         -0.00489140       0.78184200       0.66086890
   116  C          0.00489140       0.28184200       0.83913110
   117  H          0.06820000       0.22330000       0.29000000
   118  H          0.93180000       0.72330000       0.21000000
   119  H          0.93180000       0.77670000       0.71000000
   120  H          0.06820000       0.27670000       0.79000000
   121  C          0.78905880       0.03808700       0.70462100
   122  C          0.21094120       0.53808700       0.79537900
   123  C          0.21094120       0.96191300       0.29537900
   124  C          0.78905880       0.46191300       0.20462100
   125  H          0.83040000       0.05990000       0.76760000
   126  H          0.16960000       0.55990000       0.73240000
   127  H          0.16960000       0.94010000       0.23240000
   128  H          0.83040000       0.44010000       0.26760000
   129  C          0.79646870       0.25354800       0.39848110
   130  C          0.20353130       0.75354800       0.10151890
   131  C          0.20353130       0.74645200       0.60151890
   132  C          0.79646870       0.24645200       0.89848110
   133  H          0.71990000       0.28270000       0.38980000
   134  H          0.28010000       0.78270000       0.11020000
   135  H          0.28010000       0.71730000       0.61020000
   136  H          0.71990000       0.21730000       0.88980000
   137  C          0.42227130       0.25035800       0.83266120
   138  C          0.57772870       0.75035800       0.66733880
   139  C          0.57772870       0.74964200       0.16733880
   140  C          0.42227130       0.24964200       0.33266120
   141  H          0.34540000       0.27090000       0.86140000
   142  H          0.65460000       0.77090000       0.63860000
   143  H          0.65460000       0.72910000       0.13860000
   144  H          0.34540000       0.22910000       0.36140000
   145  H          0.48830000       0.28940000       0.83180000
   146  H          0.51170000       0.78940000       0.66820000
   147  H          0.51170000       0.71060000       0.16820000
   148  H          0.48830000       0.21060000       0.33180000
   149  H          0.45610000       0.20870000       0.87760000
   150  H          0.54390000       0.70870000       0.62240000
   151  H          0.54390000       0.79130000       0.12240000
   152  H          0.45610000       0.29130000       0.37760000
   153  C          0.33216130       0.28955800       0.64688120
   154  C          0.66783870       0.78955800       0.85311880
   155  C          0.66783870       0.71044200       0.35311880
   156  C          0.33216130       0.21044200       0.14688120
   157  H          0.31110000       0.27340000       0.57280000
   158  H          0.68890000       0.77340000       0.92720000
   159  H          0.68890000       0.72660000       0.42720000
   160  H          0.31110000       0.22660000       0.07280000
   161  H          0.39780000       0.32900000       0.64930000
   162  H          0.60220000       0.82900000       0.85070000
   163  H          0.60220000       0.67100000       0.35070000
   164  H          0.39780000       0.17100000       0.14930000
   165  H          0.25420000       0.30890000       0.67540000
   166  H          0.74580000       0.80890000       0.82460000
   167  H          0.74580000       0.69110000       0.32460000
   168  H          0.25420000       0.19110000       0.17540000
   169  C          0.28140140      -0.00317900      -0.00616890
   170  C          0.71859860       0.49682100       0.50616890
   171  C          0.71859860       0.00317900       0.00616890
   172  C          0.28140140       0.50317900       0.49383110
   173  H          0.36240000       0.02440000      -0.00900000
   174  H          0.63760000       0.52440000       0.50900000
   175  H          0.63760000       0.97560000       0.00900000
   176  H          0.36240000       0.47560000       0.49100000
   177  H          0.29530000       0.95490000       0.04370000
   178  H          0.70470000       0.45490000       0.45630000
   179  H          0.70470000       0.04510000       0.95630000
   180  H          0.29530000       0.54510000       0.54370000
   181  H          0.21550000       0.03030000       0.01810000
   182  H          0.78450000       0.53030000       0.48190000
   183  H          0.78450000       0.96970000       0.98190000
   184  H          0.21550000       0.46970000       0.51810000
   185  C          0.50990130       0.19257800       0.66675120
   186  C          0.49009870       0.69257800       0.83324880
   187  C          0.49009870       0.80742200       0.33324880
   188  C          0.50990130       0.30742200       0.16675120
   189  H          0.54580000       0.14980000       0.70830000
   190  H          0.45420000       0.64980000       0.79170000
   191  H          0.45420000       0.85020000       0.29170000
   192  H          0.54580000       0.35020000       0.20830000
   193  H          0.57420000       0.23270000       0.66890000
   194  H          0.42580000       0.73270000       0.83110000
   195  H          0.42580000       0.76730000       0.33110000
   196  H          0.57420000       0.26730000       0.16890000
   197  H          0.48730000       0.17720000       0.59260000
   198  H          0.51270000       0.67720000       0.90740000
   199  H          0.51270000       0.82280000       0.40740000
   200  H          0.48730000       0.32280000       0.09260000
   201  C          0.10957140       0.91946200       0.88995120
   202  C          0.89042860       0.41946200       0.61004880
   203  C          0.89042860       0.08053800       0.11004880
   204  C          0.10957140       0.58053800       0.38995120
   205  H          0.12770000       0.88010000       0.94350000
   206  H          0.87230000       0.38010000       0.55650000
   207  H          0.87230000       0.11990000       0.05650000
   208  H          0.12770000       0.61990000       0.44350000
   209  H          0.08100000       0.89670000       0.82090000
   210  H          0.91900000       0.39670000       0.67910000
   211  H          0.91900000       0.10330000       0.17910000
   212  H          0.08100000       0.60330000       0.32090000
   213  H          0.04140000       0.95230000       0.91200000
   214  H          0.95860000       0.45230000       0.58800000
   215  H          0.95860000       0.04770000       0.08800000
   216  H          0.04140000       0.54770000       0.41200000
   217  C          0.34022150       0.91280200       0.84048120
   218  C          0.65977850       0.41280200       0.65951880
   219  C          0.65977850       0.08719800       0.15951880
   220  C          0.34022150       0.58719800       0.34048120
   221  H          0.42050000       0.94080000       0.83550000
   222  H          0.57950000       0.44080000       0.66450000
   223  H          0.57950000       0.05920000       0.16450000
   224  H          0.42050000       0.55920000       0.33550000
   225  H          0.31000000       0.89270000       0.77010000
   226  H          0.69000000       0.39270000       0.72990000
   227  H          0.69000000       0.10730000       0.22990000
   228  H          0.31000000       0.60730000       0.27010000
   229  H          0.35610000       0.87160000       0.89140000
   230  H          0.64390000       0.37160000       0.60860000
   231  H          0.64390000       0.12840000       0.10860000
   232  H          0.35610000       0.62840000       0.39140000
