data_YOZZAQ01
_symmetry_space_group_name_H-M    'P1'
_symmetry_Int_Tables_number       1
loop_
_symmetry_equiv_pos_site_id
_symmetry_equiv_pos_as_xyz
1 x,y,z
_cell_length_a                   7.16032
_cell_length_b                   7.23762
_cell_length_c                   7.49503
_cell_angle_alpha                63.231314
_cell_angle_beta                 69.705314
_cell_angle_gamma                64.984015
loop_
_atom_site_label
_atom_site_type_symbol
_atom_site_fract_x
_atom_site_fract_y
_atom_site_fract_z
     1  Cl         0.32204600       0.08476600       0.76652500
     2  Cl         0.67795400       0.91523400       0.23347500
     3  O          0.22648170       0.31940170       0.04009160
     4  O          0.77351830       0.68059830       0.95990840
     5  O          0.26293180       0.65172180       0.90414160
     6  O          0.73706820       0.34827820       0.09585840
     7  H          0.25910000       0.62930000       0.02530000
     8  H          0.74090000       0.37070000       0.97470000
     9  N          0.23714190       0.61122000       0.27746180
    10  N          0.76285810       0.38878000       0.72253820
    11  C          0.26962000       0.40872000       0.41302000
    12  C          0.73038000       0.59128000       0.58698000
    13  H          0.29150000       0.29480000       0.37000000
    14  H          0.70850000       0.70520000       0.63000000
    15  C          0.24312000       0.48362000       0.89602000
    16  C          0.75688000       0.51638000       0.10398000
    17  C          0.20632000       0.77332000       0.33702000
    18  C          0.79368000       0.22668000       0.66298000
    19  H          0.18260000       0.91830000       0.24100000
    20  H          0.81740000       0.08170000       0.75900000
    21  C          0.27272000       0.35632000       0.61552000
    22  C          0.72728000       0.64368000       0.38448000
    23  C          0.20832000       0.73352000       0.53552000
    24  C          0.79168000       0.26648000       0.46448000
    25  H          0.18700000       0.85090000       0.57330000
    26  H          0.81300000       0.14910000       0.42670000
    27  C          0.24132000       0.52222000       0.68042000
    28  C          0.75868000       0.47778000       0.31958000
