data_YOZZAQ
_symmetry_space_group_name_H-M    'P1'
_symmetry_Int_Tables_number       1
loop_
_symmetry_equiv_pos_site_id
_symmetry_equiv_pos_as_xyz
1 x,y,z
_cell_length_a                   3.67791
_cell_length_b                   6.93711
_cell_length_c                   7.03722
_cell_angle_alpha                61.697514
_cell_angle_beta                 80.000212
_cell_angle_gamma                89.512212
loop_
_atom_site_label
_atom_site_type_symbol
_atom_site_fract_x
_atom_site_fract_y
_atom_site_fract_z
     1  Cl         0.43401400       0.16497300       0.29003300
     2  N          0.83554000       0.69212000       0.28243000
     3  C          0.73635000       0.54343000       0.22793000
     4  H          0.78260000       0.57930000       0.07720000
     5  C          0.56625000       0.33593000       0.38593000
     6  C          0.49875000       0.28053000       0.60673000
     7  C          0.59715000       0.44083000       0.65993000
     8  H          0.54830000       0.41130000       0.80860000
     9  C          0.76615000       0.64253000       0.49493000
    10  H          0.83510000       0.74920000       0.53340000
    11  C          0.33345000       0.05683000       0.78933000
    12  O          0.40284000       0.88778000       0.78492000
    13  O          0.11924000       0.07152000       0.95142000
    14  H          0.04320000       0.94480000       0.05440000
