data_YOZZAQ02
_symmetry_space_group_name_H-M    'P1'
_symmetry_Int_Tables_number       1
loop_
_symmetry_equiv_pos_site_id
_symmetry_equiv_pos_as_xyz
1 x,y,z
_cell_length_a                   7.32672
_cell_length_b                   6.64132
_cell_length_c                   12.65124
_cell_angle_alpha                90.0
_cell_angle_beta                 92.225415
_cell_angle_gamma                90.0
loop_
_atom_site_label
_atom_site_type_symbol
_atom_site_fract_x
_atom_site_fract_y
_atom_site_fract_z
     1  Cl         0.82621400       0.34399500       0.94515200
     2  Cl         0.67378600       0.84399500       0.55484800
     3  Cl         0.17378600       0.65600500       0.05484800
     4  Cl         0.32621400       0.15600500       0.44515200
     5  O          0.60059130       0.34192140       0.62026700
     6  O          0.89940870       0.84192140       0.87973300
     7  O          0.39940870       0.65807860       0.37973300
     8  O          0.10059130       0.15807860       0.12026700
     9  H          0.67230000       0.34040000       0.57000000
    10  H          0.82770000       0.84040000       0.93000000
    11  H          0.32770000       0.65960000       0.43000000
    12  H          0.17230000       0.15960000       0.07000000
    13  O          0.84612130       0.22877160       0.71514700
    14  O          0.65387870       0.72877160       0.78485300
    15  O          0.15387870       0.77122840       0.28485300
    16  O          0.34612130       0.27122840       0.21514700
    17  N          0.30977150       0.18841170       0.95583800
    18  N          0.19022850       0.68841170       0.54416200
    19  N          0.69022850       0.81158830       0.04416200
    20  N          0.80977150       0.31158830       0.45583800
    21  C          0.37546180       0.19552000       0.77275100
    22  C          0.12453820       0.69552000       0.72724900
    23  C          0.62453820       0.80448000       0.22724900
    24  C          0.87546180       0.30448000       0.27275100
    25  H          0.33340000       0.17950000       0.70130000
    26  H          0.16660000       0.67950000       0.79870000
    27  H          0.66660000       0.82050000       0.29870000
    28  H          0.83340000       0.32050000       0.20130000
    29  C          0.25654180       0.16495190       0.85371100
    30  C          0.24345820       0.66495190       0.64628900
    31  C          0.74345820       0.83504810       0.14628900
    32  C          0.75654180       0.33504810       0.35371100
    33  H          0.13410000       0.12640000       0.83660000
    34  H          0.36590000       0.62640000       0.66340000
    35  H          0.86590000       0.87360000       0.16340000
    36  H          0.63410000       0.37360000       0.33660000
    37  C          0.48221180       0.24268190       0.97893100
    38  C          0.01778820       0.74268190       0.52106900
    39  C          0.51778820       0.75731810       0.02106900
    40  C         -0.01778820       0.25731810       0.47893100
    41  H          0.51950000       0.26110000       0.05100000
    42  H         -0.01950000       0.76110000       0.44900000
    43  H          0.48050000       0.73890000       0.94900000
    44  H          0.01950000       0.23890000       0.55100000
    45  C          0.55667170       0.24973180       0.79562100
    46  C          0.94332830       0.74973180       0.70437900
    47  C          0.44332830       0.75026820       0.20437900
    48  C          0.05667170       0.25026820       0.29562100
    49  C          0.68555170       0.27421190       0.70641100
    50  C          0.81444830       0.77421190       0.79358900
    51  C          0.31444830       0.72578810       0.29358900
    52  C          0.18555170       0.22578810       0.20641100
    53  C          0.60942170       0.27331190       0.90191900
    54  C          0.89057830       0.77331190       0.59808100
    55  C          0.39057830       0.72668810       0.09808100
    56  C          0.10942170       0.22668810       0.40191900
