data_YUBWAV02
_symmetry_space_group_name_H-M    'P1'
_symmetry_Int_Tables_number       1
loop_
_symmetry_equiv_pos_site_id
_symmetry_equiv_pos_as_xyz
1 x,y,z
_cell_length_a                   14.682218
_cell_length_b                   6.62318
_cell_length_c                   20.9703
_cell_angle_alpha                90.0
_cell_angle_beta                 90.0
_cell_angle_gamma                90.0
loop_
_atom_site_label
_atom_site_type_symbol
_atom_site_fract_x
_atom_site_fract_y
_atom_site_fract_z
     1  O          0.55143000       0.35547000       0.57012000
     2  O          0.05143000       0.14453000       0.42988000
     3  O          0.44857000       0.85547000       0.92988000
     4  O          0.94857000       0.64453000       0.07012000
     5  O          0.44857000       0.64453000       0.42988000
     6  O          0.94857000       0.85547000       0.57012000
     7  O          0.55143000       0.14453000       0.07012000
     8  O          0.05143000       0.35547000       0.92988000
     9  N          0.57214000       0.31328000       0.43343000
    10  N          0.07214000       0.18672000       0.56657000
    11  N          0.42786000       0.81328000       0.06657000
    12  N          0.92786000       0.68672000       0.93343000
    13  N          0.42786000       0.68672000       0.56657000
    14  N          0.92786000       0.81328000       0.43343000
    15  N          0.57214000       0.18672000       0.93343000
    16  N          0.07214000       0.31328000       0.06657000
    17  C          0.62914000       0.03811000       0.38323000
    18  C          0.12914000       0.46189000       0.61677000
    19  C          0.37086000       0.53811000       0.11677000
    20  C          0.87086000       0.96189000       0.88323000
    21  C          0.37086000       0.96189000       0.61677000
    22  C          0.87086000       0.53811000       0.38323000
    23  C          0.62914000       0.46189000       0.88323000
    24  C          0.12914000       0.03811000       0.11677000
    25  C          0.58984000       0.23421000       0.37414000
    26  C          0.08984000       0.26579000       0.62586000
    27  C          0.41016000       0.73421000       0.12586000
    28  C          0.91016000       0.76579000       0.87414000
    29  C          0.41016000       0.76579000       0.62586000
    30  C          0.91016000       0.73421000       0.37414000
    31  C          0.58984000       0.26579000       0.87414000
    32  C          0.08984000       0.23421000       0.12586000
    33  C          0.58664000       0.20171000       0.54463000
    34  C          0.08664000       0.29829000       0.45537000
    35  C          0.41336000       0.70171000       0.95537000
    36  C          0.91336000       0.79829000       0.04463000
    37  C          0.41336000       0.79829000       0.45537000
    38  C          0.91336000       0.70171000       0.54463000
    39  C          0.58664000       0.29829000       0.04463000
    40  C          0.08664000       0.20171000       0.95537000
    41  C          0.59704000       0.17501000       0.47934000
    42  C          0.09704000       0.32499000       0.52066000
    43  C          0.40296000       0.67501000       0.02066000
    44  C          0.90296000       0.82499000       0.97934000
    45  C          0.40296000       0.82499000       0.52066000
    46  C          0.90296000       0.67501000       0.47934000
    47  C          0.59704000       0.32499000       0.97934000
    48  C          0.09704000       0.17501000       0.02066000
    49  C          0.66425000       0.82499000       0.48764000
    50  C          0.16425000       0.67501000       0.51236000
    51  C          0.33575000       0.32499000       0.01236000
    52  C          0.83575000       0.17501000       0.98764000
    53  C          0.33575000       0.17501000       0.51236000
    54  C          0.83575000       0.32499000       0.48764000
    55  C          0.66425000       0.67501000       0.98764000
    56  C          0.16425000       0.82499000       0.01236000
    57  C          0.65254000       0.92708700       0.32873000
    58  C          0.15254000       0.57291300       0.67127000
    59  C          0.34746000       0.42708700       0.17127000
    60  C          0.84746000       0.07291300       0.82873000
    61  C          0.34746000       0.07291300       0.67127000
    62  C          0.84746000       0.42708700       0.32873000
    63  C          0.65254000       0.57291300       0.82873000
    64  C          0.15254000       0.92708700       0.17127000
    65  C          0.59784000       0.19191000       0.26175000
    66  C          0.09784000       0.30809000       0.73825000
    67  C          0.40216000       0.69191000       0.23825000
    68  C          0.90216000       0.80809000       0.76175000
    69  C          0.40216000       0.80809000       0.73825000
    70  C          0.90216000       0.69191000       0.26175000
    71  C          0.59784000       0.30809000       0.76175000
    72  C          0.09784000       0.19191000       0.23825000
    73  C          0.63354000      -0.00041100       0.45003000
    74  C          0.13354000       0.50041100       0.54997000
    75  C          0.36646000       0.49958900       0.04997000
    76  C          0.86646000       0.00041100       0.95003000
    77  C          0.36646000       0.00041100       0.54997000
    78  C          0.86646000       0.49958900       0.45003000
    79  C          0.63354000       0.50041100       0.95003000
    80  C          0.13354000      -0.00041100       0.04997000
    81  C          0.69075000       0.89489000       0.55523000
    82  C          0.19075000       0.60511000       0.44477000
    83  C          0.30925000       0.39489000       0.94477000
    84  C          0.80925000       0.10511000       0.05523000
    85  C          0.30925000       0.10511000       0.44477000
    86  C          0.80925000       0.39489000       0.55523000
    87  C          0.69075000       0.60511000       0.05523000
    88  C          0.19075000       0.89489000       0.94477000
    89  C          0.61975000       0.02641000       0.58653000
    90  C          0.11975000       0.47359000       0.41347000
    91  C          0.38025000       0.52641000       0.91347000
    92  C          0.88025000       0.97359000       0.08653000
    93  C          0.38025000       0.97359000       0.41347000
    94  C          0.88025000       0.52641000       0.58653000
    95  C          0.61975000       0.47359000       0.08653000
    96  C          0.11975000       0.02641000       0.91347000
    97  C          0.57565000       0.31171100       0.31394000
    98  C          0.07565000       0.18828900       0.68606000
    99  C          0.42435000       0.81171100       0.18606000
   100  C          0.92435000       0.68828900       0.81394000
   101  C          0.42435000       0.68828900       0.68606000
   102  C          0.92435000       0.81171100       0.31394000
   103  C          0.57565000       0.18828900       0.81394000
   104  C          0.07565000       0.31171100       0.18606000
   105  C          0.63905000      -0.00351200       0.26864000
   106  C          0.13905000       0.50351200       0.73136000
   107  C          0.36095000       0.49648800       0.23136000
   108  C          0.86095000       0.00351200       0.76864000
   109  C          0.36095000       0.00351200       0.73136000
   110  C          0.86095000       0.49648800       0.26864000
   111  C          0.63905000       0.50351200       0.76864000
   112  C          0.13905000      -0.00351200       0.23136000
   113  C          0.66656000       0.87728700       0.21054000
   114  C          0.16656000       0.62271300       0.78946000
   115  C          0.33344000       0.37728700       0.28946000
   116  C          0.83344000       0.12271300       0.71054000
   117  C          0.33344000       0.12271300       0.78946000
   118  C          0.83344000       0.37728700       0.21054000
   119  C          0.66656000       0.62271300       0.71054000
   120  C          0.16656000       0.87728700       0.28946000
   121  H          0.55175000       0.44061100       0.30834000
   122  H          0.05175000       0.05938900       0.69166000
   123  H          0.44825000       0.94061100       0.19166000
   124  H          0.94825000       0.55938900       0.80834000
   125  H          0.44825000       0.55938900       0.69166000
   126  H          0.94825000       0.94061100       0.30834000
   127  H          0.55175000       0.05938900       0.80834000
   128  H          0.05175000       0.44061100       0.19166000
   129  H          0.58564000       0.24011000       0.22095000
   130  H          0.08564000       0.25989000       0.77905000
   131  H          0.41436000       0.74011000       0.27905000
   132  H          0.91436000       0.75989000       0.72095000
   133  H          0.41436000       0.75989000       0.77905000
   134  H          0.91436000       0.74011000       0.22095000
   135  H          0.58564000       0.25989000       0.72095000
   136  H          0.08564000       0.24011000       0.27905000
   137  H          0.67864000       0.80008700       0.33393000
   138  H          0.17864000       0.69991300       0.66607000
   139  H          0.32136000       0.30008700       0.16607000
   140  H          0.82136000       0.19991300       0.83393000
   141  H          0.32136000       0.19991300       0.66607000
   142  H          0.82136000       0.30008700       0.33393000
   143  H          0.67864000       0.69991300       0.83393000
   144  H          0.17864000       0.80008700       0.16607000
   145  H          0.54914000       0.43048000       0.44073000
   146  H          0.04914000       0.06952000       0.55927000
   147  H          0.45086000       0.93048000       0.05927000
   148  H          0.95086000       0.56952000       0.94073000
   149  H          0.45086000       0.56952000       0.55927000
   150  H          0.95086000       0.93048000       0.44073000
   151  H          0.54914000       0.06952000       0.94073000
   152  H          0.04914000       0.43048000       0.05927000
   153  H          0.61585000       0.72569000       0.49014000
   154  H          0.11585000       0.77431000       0.50986000
   155  H          0.38415000       0.22569000       0.00986000
   156  H          0.88415000       0.27431000       0.99014000
   157  H          0.38415000       0.27431000       0.50986000
   158  H          0.88415000       0.22569000       0.49014000
   159  H          0.61585000       0.77431000       0.99014000
   160  H          0.11585000       0.72569000       0.00986000
   161  H          0.71635000       0.76259000       0.46704000
   162  H          0.21635000       0.73741000       0.53296000
   163  H          0.28365000       0.26259000       0.03296000
   164  H          0.78365000       0.23741000       0.96704000
   165  H          0.28365000       0.23741000       0.53296000
   166  H          0.78365000       0.26259000       0.46704000
   167  H          0.71635000       0.73741000       0.96704000
   168  H          0.21635000       0.76259000       0.03296000
   169  H          0.70105000       0.77699000       0.58163000
   170  H          0.20105000       0.72301000       0.41837000
   171  H          0.29895000       0.27699000       0.91837000
   172  H          0.79895000       0.22301000       0.08163000
   173  H          0.29895000       0.22301000       0.41837000
   174  H          0.79895000       0.27699000       0.58163000
   175  H          0.70105000       0.72301000       0.08163000
   176  H          0.20105000       0.77699000       0.91837000
   177  H          0.74755000       0.96929000       0.55283000
   178  H          0.24755000       0.53071000       0.44717000
   179  H          0.25245000       0.46929000       0.94717000
   180  H          0.75245000       0.03071000       0.05283000
   181  H          0.25245000       0.03071000       0.44717000
   182  H          0.75245000       0.46929000       0.55283000
   183  H          0.74755000       0.53071000       0.05283000
   184  H          0.24755000       0.96929000       0.94717000
   185  H          0.64485000       0.08121000       0.62563000
   186  H          0.14485000       0.41879000       0.37437000
   187  H          0.35515000       0.58121000       0.87437000
   188  H          0.85515000       0.91879000       0.12563000
   189  H          0.35515000       0.91879000       0.37437000
   190  H          0.85515000       0.58121000       0.62563000
   191  H          0.64485000       0.41879000       0.12563000
   192  H          0.14485000       0.08121000       0.87437000
   193  H          0.56785000       0.94309000       0.59793000
   194  H          0.06785000       0.55691000       0.40207000
   195  H          0.43215000       0.44309000       0.90207000
   196  H          0.93215000       0.05691000       0.09793000
   197  H          0.43215000       0.05691000       0.40207000
   198  H          0.93215000       0.44309000       0.59793000
   199  H          0.56785000       0.55691000       0.09793000
   200  H          0.06785000       0.94309000       0.90207000
   201  H          0.72971100       0.90040000       0.20151500
   202  H          0.22971100       0.59960000       0.79848500
   203  H          0.27028900       0.40040000       0.29848500
   204  H          0.77028900       0.09960000       0.70151500
   205  H          0.27028900       0.09960000       0.79848500
   206  H          0.77028900       0.40040000       0.20151500
   207  H          0.72971100       0.59960000       0.70151500
   208  H          0.22971100       0.90040000       0.29848500
   209  H          0.65730000       0.73608600       0.21831000
   210  H          0.15730000       0.76391400       0.78169000
   211  H          0.34270000       0.23608600       0.28169000
   212  H          0.84270000       0.26391400       0.71831000
   213  H          0.34270000       0.26391400       0.78169000
   214  H          0.84270000       0.23608600       0.21831000
   215  H          0.65730000       0.76391400       0.71831000
   216  H          0.15730000       0.73608600       0.28169000
   217  H          0.63030000       0.91840000       0.17477000
   218  H          0.13030000       0.58160000       0.82523000
   219  H          0.36970000       0.41840000       0.32523000
   220  H          0.86970000       0.08160000       0.67477000
   221  H          0.36970000       0.08160000       0.82523000
   222  H          0.86970000       0.41840000       0.17477000
   223  H          0.63030000       0.58160000       0.67477000
   224  H          0.13030000       0.91840000       0.32523000
