data_YUBWAV01
_symmetry_space_group_name_H-M    'P1'
_symmetry_Int_Tables_number       1
loop_
_symmetry_equiv_pos_site_id
_symmetry_equiv_pos_as_xyz
1 x,y,z
_cell_length_a                   12.725611
_cell_length_b                   5.44795
_cell_length_c                   14.793014
_cell_angle_alpha                90.0
_cell_angle_beta                 103.0393
_cell_angle_gamma                90.0
loop_
_atom_site_label
_atom_site_type_symbol
_atom_site_fract_x
_atom_site_fract_y
_atom_site_fract_z
     1  O          0.09724120       0.15193000       0.61773100
     2  O          0.40275880       0.65193000       0.88226900
     3  O          0.90275880       0.84807000       0.38226900
     4  O          0.59724120       0.34807000       0.11773100
     5  N          0.05827130       0.23683000       0.41784110
     6  N          0.44172870       0.73683000       0.08215890
     7  N          0.94172870       0.76317000       0.58215890
     8  N          0.55827130       0.26317000       0.91784110
     9  C          0.14001150       0.32364000       0.58590130
    10  C          0.35998850       0.82364000       0.91409870
    11  C          0.85998850       0.67636000       0.41409870
    12  C          0.64001150       0.17636000       0.08590130
    13  C          0.14417160       0.69404000       0.27578140
    14  C          0.35582840       0.19404000       0.22421860
    15  C          0.85582840       0.30596000       0.72421860
    16  C          0.64417160       0.80596000       0.77578140
    17  C          0.12365150       0.37174000       0.48739140
    18  C          0.37634850       0.87174000       0.01260860
    19  C          0.87634850       0.62826000       0.51260860
    20  C          0.62365150       0.12826000       0.98739140
    21  C          0.12966140       0.55064000       0.35138130
    22  C          0.37033860       0.05064000       0.14861870
    23  C          0.87033860       0.44936000       0.64861870
    24  C          0.62966140       0.94936000       0.85138130
    25  C          0.16965140       0.56434000       0.44965130
    26  C          0.33034860       0.06434000       0.05034870
    27  C          0.83034860       0.43566000       0.55034870
    28  C          0.66965140       0.93566000       0.94965130
    29  C          0.02485160       0.41894000       0.17315140
    30  C          0.47514840       0.91894000       0.32684860
    31  C          0.97514840       0.58106000       0.82684860
    32  C          0.52485160       0.08106000       0.67315140
    33  C          0.21324150       0.50534000       0.64707140
    34  C          0.28675850       0.00534000       0.85292860
    35  C          0.78675850       0.49466000       0.35292860
    36  C          0.71324150      -0.00534000       0.14707140
    37  C          0.09115160       0.63074000       0.18691140
    38  C          0.40884840       0.13074000       0.31308860
    39  C          0.90884840       0.36926000       0.81308860
    40  C          0.59115160       0.86926000       0.68691140
    41  C          0.10269180       0.78174000       0.10444150
    42  C          0.39730820       0.28174000       0.39555850
    43  C          0.89730820       0.21826000       0.89555850
    44  C          0.60269180       0.71826000       0.60444150
    45  C          0.00917150       0.27364000       0.24474130
    46  C          0.49082850       0.77364000       0.25525870
    47  C         -0.00917150       0.72636000       0.75525870
    48  C          0.50917150       0.22636000       0.74474130
    49  C          0.06165150       0.34294000       0.33477140
    50  C          0.43834850       0.84294000       0.16522860
    51  C          0.93834850       0.65706000       0.66522860
    52  C          0.56165150       0.15706000       0.83477140
    53  C          0.29902160       0.61464000       0.60098140
    54  C          0.20097840       0.11464000       0.89901860
    55  C          0.70097840       0.38536000       0.39901860
    56  C          0.79902160       0.88536000       0.10098140
    57  C          0.24871160       0.73704000       0.50780130
    58  C          0.25128840       0.23704000      -0.00780130
    59  C          0.75128840       0.26296000       0.49219870
    60  C          0.74871160       0.76296000       0.00780130
    61  H          0.96458850       0.13194000       0.23369130
    62  H          0.53541150       0.63194000       0.26630870
    63  H          0.03541150       0.86806000       0.76630870
    64  H          0.46458850       0.36806000       0.73369130
    65  H         -0.01037160       0.37554000       0.11157140
    66  H          0.51037160       0.87554000       0.38842860
    67  H          0.01037160       0.62446000       0.88842860
    68  H          0.48962840       0.12446000       0.61157140
    69  H          0.19018160       0.83344000       0.28600140
    70  H          0.30981840       0.33344000       0.21399860
    71  H          0.80981840       0.16656000       0.71399860
    72  H          0.69018160       0.66656000       0.78600140
    73  H          0.02095130       0.10563000       0.42559110
    74  H          0.47904870       0.60563000       0.07440890
    75  H          0.97904870       0.89437000       0.57440890
    76  H          0.52095130       0.39437000       0.92559110
    77  H          0.16889150       0.64014000       0.66359140
    78  H          0.33110850       0.14014000       0.83640860
    79  H          0.83110850       0.35986000       0.33640860
    80  H          0.66889150       0.85986000       0.16359140
    81  H          0.24958150       0.42224000       0.70525140
    82  H          0.25041850       0.92224000       0.79474860
    83  H          0.75041850       0.57776000       0.29474860
    84  H          0.74958150       0.07776000       0.20525140
    85  H          0.13201100       0.94341000       0.12552170
    86  H          0.36798900       0.44341000       0.37447830
    87  H          0.86798900       0.05659000       0.87447830
    88  H          0.63201100       0.55659000       0.62552170
    89  H          0.15179000       0.69841300       0.07206000
    90  H          0.34821000       0.19841300       0.42794000
    91  H          0.84821000       0.30158700       0.92794000
    92  H          0.65179000       0.80158700       0.57206000
    93  H          0.03193000       0.80220000       0.06225000
    94  H          0.46807000       0.30220000       0.43775000
    95  H          0.96807000       0.19780000       0.93775000
    96  H          0.53193000       0.69780000       0.56225000
    97  H          0.34179160       0.73764000       0.64306140
    98  H          0.15820840       0.23764000       0.85693860
    99  H          0.65820840       0.26236000       0.35693860
   100  H          0.84179160       0.76236000       0.14306140
   101  H          0.34866160       0.48284000       0.59078140
   102  H          0.15133840      -0.01716000       0.90921860
   103  H          0.65133840       0.51716000       0.40921860
   104  H          0.84866160       0.01716000       0.09078140
   105  H          0.30595160       0.77964000       0.47497130
   106  H          0.19404840       0.27964000       0.02502870
   107  H          0.69404840       0.22036000       0.52502870
   108  H          0.80595160       0.72036000       0.97497130
   109  H          0.21154160       0.89024000       0.51864130
   110  H          0.28845840       0.39024000       0.98135870
   111  H          0.78845840       0.10976000       0.48135870
   112  H          0.71154160       0.60976000       0.01864130
