data_YUBWAV
_symmetry_space_group_name_H-M    'P1'
_symmetry_Int_Tables_number       1
loop_
_symmetry_equiv_pos_site_id
_symmetry_equiv_pos_as_xyz
1 x,y,z
_cell_length_a                   9.37636
_cell_length_b                   6.55864
_cell_length_c                   16.79321
_cell_angle_alpha                90.0
_cell_angle_beta                 102.5582
_cell_angle_gamma                90.0
loop_
_atom_site_label
_atom_site_type_symbol
_atom_site_fract_x
_atom_site_fract_y
_atom_site_fract_z
     1  O          0.14805140       0.15061190       0.45925700
     2  O          0.35194860       0.65061190       0.04074300
     3  O          0.85194860       0.84938810       0.54074300
     4  O          0.64805140       0.34938810       0.95925700
     5  N          0.03361150       0.18412000       0.60696900
     6  N          0.46638850       0.68412000       0.89303100
     7  N          0.96638850       0.81588000       0.39303100
     8  N          0.53361150       0.31588000       0.10696900
     9  H          0.00644150       0.06412000       0.58543900
    10  H          0.49355850       0.56412000       0.91456100
    11  H         -0.00644150       0.93588000       0.41456100
    12  H          0.50644150       0.43588000       0.08543900
    13  C          0.06433170       0.46003000       0.69021100
    14  C          0.43566830       0.96003000       0.80978900
    15  C          0.93566830       0.53997000       0.30978900
    16  C          0.56433170       0.03997000       0.19021100
    17  C          0.91337810       0.18273000       0.72657110
    18  C          0.58662190       0.68273000       0.77342890
    19  C          0.08662190       0.81727000       0.27342890
    20  C          0.41337810       0.31727000       0.22657110
    21  H          0.86998810       0.05163000       0.71682110
    22  H          0.63001190       0.55163000       0.78317890
    23  H          0.13001190       0.94837000       0.28317890
    24  H          0.36998810       0.44837000       0.21682110
    25  C          0.95973820       0.49443000       0.80835100
    26  C          0.54026180      -0.00557000       0.69164900
    27  C          0.04026180       0.50557000       0.19164900
    28  C          0.45973820       0.00557000       0.30835100
    29  C          0.11798180       0.32493000       0.57717100
    30  C          0.38201820       0.82493000       0.92282900
    31  C          0.88201820       0.67507000       0.42282900
    32  C          0.61798180       0.17507000       0.07717100
    33  C          0.14019170       0.49543000       0.62663100
    34  C          0.35980830      -0.00457000       0.87336900
    35  C          0.85980830       0.50457000       0.37336900
    36  C          0.64019170       0.00457000       0.12663100
    37  C          0.89399820       0.30063000       0.79112100
    38  C          0.60600180       0.80063000       0.70887900
    39  C          0.10600180       0.69937000       0.20887900
    40  C          0.39399820       0.19937000       0.29112100
    41  H          0.83401820       0.24993000       0.82554100
    42  H          0.66598180       0.74993000       0.67445900
    43  H          0.16598180       0.75007000       0.17445900
    44  H          0.33401820       0.25007000       0.32554100
    45  C          0.17341180       0.30033000       0.50406100
    46  C          0.32658820       0.80033000      -0.00406100
    47  C          0.82658820       0.69967000       0.49593900
    48  C          0.67341180       0.19967000       0.00406100
    49  C         -0.00047170       0.26343000       0.67584100
    50  C          0.50047170       0.76343000       0.82415900
    51  C          0.00047170       0.73657000       0.32415900
    52  C          0.49952830       0.23657000       0.17584100
    53  C          0.22685190       0.67473000       0.60910110
    54  C          0.27314810       0.17473000       0.89089890
    55  C          0.77314810       0.32527000       0.39089890
    56  C          0.72685190       0.82527000       0.10910110
    57  H          0.16040190       0.77933000       0.57875110
    58  H          0.33959810       0.27933000       0.92124890
    59  H          0.83959810       0.22067000       0.42124890
    60  H          0.66040190       0.72067000       0.07875110
    61  H          0.28021190       0.73593000       0.66094110
    62  H          0.21978810       0.23593000       0.83905890
    63  H          0.71978810       0.26407000       0.33905890
    64  H          0.78021190       0.76407000       0.16094110
    65  C          0.26315190       0.47783000       0.48451100
    66  C          0.23684810       0.97783000       0.01548900
    67  C          0.73684810       0.52217000       0.51548900
    68  C          0.76315190       0.02217000       0.98451100
    69  H          0.34031190       0.42453000       0.45820100
    70  H          0.15968810       0.92453000       0.04179900
    71  H          0.65968810       0.57547000       0.54179900
    72  H          0.84031190       0.07547000       0.95820100
    73  H          0.19912190       0.56743000       0.44458100
    74  H          0.30087810       0.06743000       0.05541900
    75  H          0.80087810       0.43257000       0.55541900
    76  H          0.69912190       0.93257000       0.94458100
    77  C          0.04441180       0.57383000       0.75801100
    78  C          0.45558820       0.07383000       0.74198900
    79  C          0.95558820       0.42617000       0.24198900
    80  C          0.54441180       0.92617000       0.25801100
    81  H          0.08878180       0.70393000       0.76904100
    82  H          0.41121820       0.20393000       0.73095900
    83  H          0.91121820       0.29607000       0.23095900
    84  H          0.58878180       0.79607000       0.26904100
    85  C          0.33534190       0.60613000       0.55849110
    86  C          0.16465810       0.10613000       0.94150890
    87  C          0.66465810       0.39387000       0.44150890
    88  C          0.83534190       0.89387000       0.05849110
    89  H          0.38082190       0.72793000       0.53950110
    90  H          0.11917810       0.22793000       0.96049890
    91  H          0.61917810       0.27207000       0.46049890
    92  H          0.88082190       0.77207000       0.03950110
    93  H          0.41386190       0.52523000       0.59345110
    94  H          0.08613810       0.02523000       0.90654890
    95  H          0.58613810       0.47477000       0.40654890
    96  H          0.91386190       0.97477000       0.09345110
    97  C          0.93908000       0.61043000       0.88300110
    98  C          0.56092000       0.11043000       0.61699890
    99  C          0.06092000       0.38957000       0.11699890
   100  C          0.43908000       0.88957000       0.38300110
   101  H          0.03234000       0.61661800       0.92304000
   102  H          0.46766000       0.11661800       0.57696000
   103  H          0.96766000       0.38338200       0.07696000
   104  H          0.53234000       0.88338200       0.42304000
   105  H          0.90548600       0.74907000       0.86719170
   106  H          0.59451400       0.24907000       0.63280830
   107  H          0.09451400       0.25093000       0.13280830
   108  H          0.40548600       0.75093000       0.36719170
   109  H          0.86628900       0.54061200       0.90715000
   110  H          0.63371100       0.04061200       0.59285000
   111  H          0.13371100       0.45938800       0.09285000
   112  H          0.36628900       0.95938800       0.40715000
