data_YUCCIJ01
_symmetry_space_group_name_H-M    'P1'
_symmetry_Int_Tables_number       1
loop_
_symmetry_equiv_pos_site_id
_symmetry_equiv_pos_as_xyz
1 x,y,z
_cell_length_a                   7.99572
_cell_length_b                   8.14672
_cell_length_c                   11.47613
_cell_angle_alpha                80.4482
_cell_angle_beta                 79.2772
_cell_angle_gamma                86.1062
loop_
_atom_site_label
_atom_site_type_symbol
_atom_site_fract_x
_atom_site_fract_y
_atom_site_fract_z
     1  S          0.33457700       0.11903700       0.16438500
     2  S          0.66542300       0.88096300       0.83561500
     3  Cl         0.19244800       0.14129900       0.91336500
     4  Cl         0.80755200       0.85870100       0.08663500
     5  O          0.77732000       0.27596180       0.43828150
     6  O          0.22268000       0.72403820       0.56171850
     7  O          0.34862000       0.13202000       0.28475160
     8  O          0.65138000       0.86798000       0.71524840
     9  O          0.35055190       0.60922000       0.34298160
    10  O          0.64944810       0.39078000       0.65701840
    11  O          0.45752000       0.19892000       0.06842170
    12  O          0.54248000       0.80108000       0.93157830
    13  C          0.63033000       0.82673000       0.38622000
    14  C          0.36967000       0.17327000       0.61378000
    15  H          0.52890000       0.89030000       0.39160000
    16  H          0.47110000       0.10970000       0.60840000
    17  C          0.02413000       0.26283000       0.24082000
    18  C          0.97587000       0.73717000       0.75918000
    19  H          0.06050000       0.25190000       0.31420000
    20  H          0.93950000       0.74810000       0.68580000
    21  C          0.86453000       0.33582000       0.22911190
    22  C          0.13547000       0.66418000       0.77088810
    23  C          0.63743000       0.66483000       0.36285180
    24  C          0.36257000       0.33517000       0.63714820
    25  N          0.57242000       0.41442000       0.32638190
    26  N          0.42758000       0.58558000       0.67361810
    27  C          0.78693000       0.56872000       0.35548180
    28  C          0.21307000       0.43128000       0.64451820
    29  C          0.50223000       0.56483000       0.34352190
    30  C          0.49777000       0.43517000       0.65647810
    31  C          0.75253000       0.39453000       0.33782000
    32  C          0.24747000       0.60547000       0.66218000
    33  C          0.91663000       0.29743000       0.02202000
    34  C          0.08337000       0.70257000       0.97798000
    35  H          0.88070000       0.31060000       0.94830000
    36  H          0.11930000       0.68940000       0.05170000
    37  C          0.93673000       0.63193000       0.36892000
    38  C          0.06327000       0.36807000       0.63108000
    39  H          0.03790000       0.56790000       0.36320000
    40  H          0.96210000       0.43210000       0.63680000
    41  N          0.33483000       0.92657000       0.15272000
    42  N          0.66517000       0.07343000       0.84728000
    43  C          0.07333000       0.22073000       0.03462000
    44  C          0.92667000       0.77927000       0.96538000
    45  C          0.77893000       0.89003000       0.40122000
    46  C          0.22107000       0.10997000       0.59878000
    47  H          0.77780000      -0.00220000       0.41810000
    48  H          0.22220000       0.00220000       0.58190000
    49  C          0.12963000       0.20603000       0.14409190
    50  C          0.87037000       0.79397000       0.85590810
    51  C          0.81323000       0.35463000       0.11862000
    52  C          0.18677000       0.64537000       0.88138000
    53  H          0.70810000       0.40630000       0.10940000
    54  H          0.29190000       0.59370000       0.89060000
    55  C          0.93053000       0.79503000       0.39132000
    56  C          0.06947000       0.20497000       0.60868000
    57  H          0.02970000       0.84150000       0.39980000
    58  H          0.97030000       0.15850000       0.60020000
    59  H          0.32140000       0.85360000       0.21930000
    60  H          0.67860000       0.14640000       0.78070000
    61  H          0.37040000       0.90360000       0.09230000
    62  H          0.62960000       0.09640000       0.90770000
    63  H          0.73740000       0.32140000       0.50530000
    64  H          0.26260000       0.67860000       0.49470000
    65  H          0.52040000       0.34040000       0.31230000
    66  H          0.47960000       0.65960000       0.68770000
