data_YUCCIJ03
_symmetry_space_group_name_H-M    'P1'
_symmetry_Int_Tables_number       1
loop_
_symmetry_equiv_pos_site_id
_symmetry_equiv_pos_as_xyz
1 x,y,z
_cell_length_a                   8.10513
_cell_length_b                   7.11783
_cell_length_c                   12.27325
_cell_angle_alpha                90.0
_cell_angle_beta                 103.6464
_cell_angle_gamma                90.0
loop_
_atom_site_label
_atom_site_type_symbol
_atom_site_fract_x
_atom_site_fract_y
_atom_site_fract_z
     1  C          0.75032000       0.26623000       0.84225140
     2  C          0.24968000       0.76623000       0.15774860
     3  C          0.01032000       0.18933000       0.97050150
     4  C         -0.01032000       0.68933000       0.02949850
     5  C          0.87412000       0.18822000       0.03317150
     6  C          0.12588000       0.68822000       0.96682850
     7  C          0.88412000       0.15583000       0.14591150
     8  C          0.11588000       0.65583000       0.85408850
     9  H         -0.01350000       0.12520000       0.19510000
    10  H          0.01350000       0.62520000       0.80490000
    11  C          0.73523000       0.17083000       0.18252150
    12  C          0.26477000       0.67083000       0.81747850
    13  H          0.73710000       0.14800000       0.25740000
    14  H          0.26290000       0.64800000       0.74260000
    15  C          0.58382000       0.21923000       0.10902150
    16  C          0.41618000       0.71923000       0.89097850
    17  H          0.48640000       0.23120000       0.13610000
    18  H          0.51360000       0.73120000       0.86390000
    19  C          0.57342000       0.25043000      -0.00433850
    20  C          0.42658000       0.75043000       0.00433850
    21  H          0.47100000       0.28100000       0.94640000
    22  H          0.52900000       0.78100000       0.05360000
    23  C          0.72182000       0.23413000       0.95946140
    24  C          0.27818000       0.73413000       0.04053860
    25  C          0.64112000       0.13483000       0.75693130
    26  C          0.35888000       0.63483000       0.24306870
    27  C          0.47152000       0.18263000       0.71174140
    28  C          0.52848000       0.68263000       0.28825860
    29  H          0.42940000       0.29650000       0.73060000
    30  H          0.57060000       0.79650000       0.26940000
    31  C          0.36592000       0.06123000       0.63900140
    32  C          0.63408000       0.56123000       0.36099860
    33  C          0.42992000       0.89157000       0.60856150
    34  C          0.57008000       0.39157000       0.39143850
    35  C          0.59792000       0.84387000       0.65363150
    36  C          0.40208000       0.34387000       0.34636850
    37  H          0.64070000       0.73110000       0.63370000
    38  H          0.35930000       0.23110000       0.36630000
    39  C          0.70232000       0.96387000       0.72834140
    40  C          0.29768000       0.46387000       0.27165860
    41  H          0.81420000       0.92980000       0.75960000
    42  H          0.18580000       0.42980000       0.24040000
    43  N          0.93277180       0.22492000       0.86188120
    44  N          0.06722820       0.72492000       0.13811880
    45  H         -0.01410000       0.22340000       0.80890000
    46  H          0.01410000       0.72340000       0.19110000
    47  N          0.10317190       0.12573000       0.46117120
    48  N          0.89682810       0.62573000       0.53882880
    49  H          0.05330000       0.02440000       0.43220000
    50  H          0.94670000       0.52440000       0.56780000
    51  H          0.06730000       0.22640000       0.43391900
    52  H          0.93270000       0.72640000       0.56608100
    53  O          0.16323160       0.16372000       0.00700110
    54  O          0.83676840       0.66372000      -0.00700110
    55  O          0.71251170       0.45148180       0.80378110
    56  O          0.28748830       0.95148180       0.19621890
    57  H          0.74410000       0.52510000       0.85590000
    58  H          0.25590000       0.02510000       0.14410000
    59  O          0.12823170       0.30609190       0.63668110
    60  O          0.87176830       0.80609190       0.36331890
    61  O          0.05319160       0.97198000       0.63337110
    62  O          0.94680840       0.47198000       0.36662890
    63  S          0.14704500       0.11995600       0.59585300
    64  S          0.85295500       0.61995600       0.40414700
    65  Cl         0.30558500       0.73640400       0.51534400
    66  Cl         0.69441500       0.23640400       0.48465600
