data_YUCCIJ
_symmetry_space_group_name_H-M    'P1'
_symmetry_Int_Tables_number       1
loop_
_symmetry_equiv_pos_site_id
_symmetry_equiv_pos_as_xyz
1 x,y,z
_cell_length_a                   6.22702
_cell_length_b                   8.38703
_cell_length_c                   14.36404
_cell_angle_alpha                92.1412
_cell_angle_beta                 101.0502
_cell_angle_gamma                107.0242
loop_
_atom_site_label
_atom_site_type_symbol
_atom_site_fract_x
_atom_site_fract_y
_atom_site_fract_z
     1  S          0.17773900       0.49610700       0.36392400
     2  S          0.82226100       0.50389300       0.63607600
     3  Cl         0.16105110       0.23593900       0.52904400
     4  Cl         0.83894890       0.76406100       0.47095600
     5  O          0.64473000       0.24823180       0.16096100
     6  O          0.35527000       0.75176820       0.83903900
     7  O          0.10733000       0.82328000       0.97404900
     8  O          0.89267000       0.17672000       0.02595100
     9  N          0.28513000       0.04422000       0.09040120
    10  N          0.71487000       0.95578000       0.90959880
    11  O          0.22433000       0.57752000       0.28189130
    12  O          0.77567000       0.42248000       0.71810870
    13  O          0.27493000       0.58532000       0.45637120
    14  O          0.72507000       0.41468000       0.54362880
    15  C          0.25544000       0.89237000       0.04650140
    16  C          0.74456000       0.10763000       0.95349860
    17  N          0.90656000       0.43423000       0.35400190
    18  N          0.09344000       0.56577000       0.64599810
    19  C          0.33964000       0.27663000       0.27509140
    20  C          0.66036000       0.72337000       0.72490860
    21  H          0.34900000       0.35060000       0.22830000
    22  H          0.65100000       0.64940000       0.77170000
    23  C          0.48003000       0.09663000       0.17247130
    24  C          0.51997000       0.90337000       0.82752870
    25  C          0.26543000       0.31223000       0.35682140
    26  C          0.73457000       0.68777000       0.64317860
    27  C          0.76374000       0.92637000       0.22811160
    28  C          0.23626000       0.07363000       0.77188840
    29  H          0.85600000       0.00770000       0.27680000
    30  H          0.14400000      -0.00770000       0.72320000
    31  C          0.57153000       0.94827000       0.17126140
    32  C          0.42847000       0.05173000       0.82873860
    33  C          0.25164000       0.20083000       0.42588140
    34  C          0.74836000       0.79917000       0.57411860
    35  C          0.39973000       0.13073000       0.26295130
    36  C          0.60027000       0.86927000       0.73704870
    37  C          0.38194000       0.02063000       0.33237150
    38  C          0.61806000       0.97937000       0.66762850
    39  H          0.42010000       0.92240000       0.32450000
    40  H          0.57990000       0.07760000       0.67550000
    41  C          0.43654000       0.82847000       0.09805140
    42  C          0.56346000       0.17153000       0.90194860
    43  C          0.81534000       0.77997000       0.21073180
    44  C          0.18466000       0.22003000       0.78926820
    45  H          0.94530000       0.76320000       0.24770000
    46  H          0.05470000       0.23680000       0.75230000
    47  C          0.30804000       0.05533000       0.41342150
    48  C          0.69196000       0.94467000       0.58657850
    49  H          0.29620000       0.98030000       0.45970000
    50  H          0.70380000       0.01970000       0.54030000
    51  C          0.48415000       0.67967000       0.08148170
    52  C          0.51585000       0.32033000       0.91851830
    53  H          0.39020000       0.59780000       0.03340000
    54  H          0.60980000       0.40220000       0.96660000
    55  C          0.67595000       0.65777000       0.13893180
    56  C          0.32405000       0.34223000       0.86106820
    57  H          0.71240000       0.55940000       0.12940000
    58  H          0.28760000       0.44060000       0.87060000
    59  H          0.18940000       0.09730000       0.07511700
    60  H          0.81060000       0.90270000       0.92488300
    61  H          0.84340000       0.40350000       0.30430000
    62  H          0.15660000       0.59650000       0.69570000
    63  H          0.72550000       0.22940000       0.12520000
    64  H          0.27450000       0.77060000       0.87480000
    65  H          0.85450000       0.40240000       0.40020000
    66  H          0.14550000       0.59760000       0.59980000
