data_YUGWOP01
_symmetry_space_group_name_H-M    'P1'
_symmetry_Int_Tables_number       1
loop_
_symmetry_equiv_pos_site_id
_symmetry_equiv_pos_as_xyz
1 x,y,z
_cell_length_a                   9.27079
_cell_length_b                   7.47732
_cell_length_c                   17.381517
_cell_angle_alpha                90.0
_cell_angle_beta                 130.49016
_cell_angle_gamma                90.0
loop_
_atom_site_label
_atom_site_type_symbol
_atom_site_fract_x
_atom_site_fract_y
_atom_site_fract_z
     1  S          0.46933700       0.80545700       0.33141400
     2  S          0.53066300       0.30545700       0.16858600
     3  S          0.53066300       0.19454300       0.66858600
     4  S          0.46933700       0.69454300       0.83141400
     5  Cl         0.33950900       0.21951700       0.31490500
     6  Cl         0.66049100       0.71951700       0.18509500
     7  Cl         0.66049100       0.78048300       0.68509500
     8  Cl         0.33950900       0.28048300       0.81490500
     9  O          0.97188000       0.69356190       0.45932140
    10  O          0.02812000       0.19356190       0.04067860
    11  O          0.02812000       0.30643810       0.54067860
    12  O          0.97188000       0.80643810       0.95932140
    13  O          0.49362000       0.61652000       0.34709130
    14  O          0.50638000       0.11652000       0.15290870
    15  O          0.50638000       0.38348000       0.65290870
    16  O          0.49362000       0.88348000       0.84709130
    17  O          0.13423000       0.49152000       0.44923140
    18  O          0.86577000      -0.00848000       0.05076860
    19  O          0.86577000       0.50848000       0.55076860
    20  O          0.13423000       0.00848000       0.94923140
    21  O          0.93568000       0.01828190       0.39180130
    22  O          0.06432000       0.51828190       0.10819870
    23  O          0.06432000      -0.01828190       0.60819870
    24  O          0.93568000       0.48171810       0.89180130
    25  C          0.25753000       0.74383000       0.38670150
    26  C          0.74247000       0.24383000       0.11329850
    27  C          0.74247000       0.25617000       0.61329850
    28  C          0.25753000       0.75617000       0.88670150
    29  H          0.29967400       0.62647900       0.39653900
    30  H          0.70032600       0.12647900       0.10346100
    31  H          0.70032600       0.37352100       0.60346100
    32  H          0.29967400       0.87352100       0.89653900
    33  C          0.13153000       0.78772000       0.40213150
    34  C          0.86847000       0.28772000       0.09786850
    35  C          0.86847000       0.21228000       0.59786850
    36  C          0.13153000       0.71228000       0.90213150
    37  C          0.06333000       0.96373000       0.38431150
    38  C          0.93667000       0.46373000       0.11568850
    39  C          0.93667000       0.03627000       0.61568850
    40  C          0.06333000       0.53627000       0.88431150
    41  C          0.07153000       0.65393000       0.43868150
    42  C          0.92847000       0.15393000       0.06131850
    43  C          0.92847000       0.34607000       0.56131850
    44  C          0.07153000       0.84607000       0.93868150
    45  C          0.32063000       0.87163000       0.35707150
    46  C          0.67937000       0.37163000       0.14292850
    47  C          0.67937000       0.12837000       0.64292850
    48  C          0.32063000       0.62837000       0.85707150
    49  C          0.25853000       0.04863000       0.34465150
    50  C          0.74147000       0.54863000       0.15534850
    51  C          0.74147000       0.95137000       0.65534850
    52  C          0.25853000       0.45137000       0.84465150
    53  O          0.63172000       0.91952000       0.38672130
    54  O          0.36828000       0.41952000       0.11327870
    55  O          0.36828000       0.08048000       0.61327870
    56  O          0.63172000       0.58048000       0.88672130
    57  C          0.13063000       0.09323000       0.35676160
    58  C          0.86937000       0.59323000       0.14323840
    59  C          0.86937000       0.90677000       0.64323840
    60  C          0.13063000       0.40677000       0.85676160
    61  H          0.08857300       0.21062800       0.34650500
    62  H          0.91142700       0.71062800       0.15349500
    63  H          0.91142700       0.78937200       0.65349500
    64  H          0.08857300       0.28937200       0.84650500
    65  N          0.34973000       0.84343000       0.21371150
    66  N          0.65027000       0.34343000       0.28628850
    67  N          0.65027000       0.15657000       0.78628850
    68  N          0.34973000       0.65657000       0.71371150
    69  H          0.91150000       0.93330000       0.41120000
    70  H          0.08850000       0.43330000       0.08880000
    71  H          0.08850000       0.06670000       0.58880000
    72  H          0.91150000       0.56670000       0.91120000
    73  H          0.38540000       0.93430000       0.19620000
    74  H          0.61460000       0.43430000       0.30380000
    75  H          0.61460000       0.06570000       0.80380000
    76  H          0.38540000       0.56570000       0.69620000
    77  H          0.27740000       0.75130000       0.17420000
    78  H          0.72260000       0.25130000       0.32580000
    79  H          0.72260000       0.24870000       0.82580000
    80  H          0.27740000       0.74870000       0.67420000
    81  H          0.10340000       0.43230000       0.47620000
    82  H          0.89660000       0.93230000       0.02380000
    83  H          0.89660000       0.56770000       0.52380000
    84  H          0.10340000       0.06770000       0.97620000
