data_YUGWOP
_symmetry_space_group_name_H-M    'P1'
_symmetry_Int_Tables_number       1
loop_
_symmetry_equiv_pos_site_id
_symmetry_equiv_pos_as_xyz
1 x,y,z
_cell_length_a                   19.86856
_cell_length_b                   19.86856
_cell_length_c                   5.33413
_cell_angle_alpha                90.0
_cell_angle_beta                 90.0
_cell_angle_gamma                90.0
loop_
_atom_site_label
_atom_site_type_symbol
_atom_site_fract_x
_atom_site_fract_y
_atom_site_fract_z
     1  S          0.09415600       0.29276600       0.11752000
     2  S          0.20723400       0.09415600       0.11752000
     3  S          0.40584400       0.20723400       0.11752000
     4  S          0.29276600       0.40584400       0.11752000
     5  S          0.90584400       0.70723400       0.88248000
     6  S          0.79276600       0.90584400       0.88248000
     7  S          0.59415600       0.79276600       0.88248000
     8  S          0.70723400       0.59415600       0.88248000
     9  Cl         0.96654200       0.28823700       0.50833000
    10  Cl         0.21176300       0.96654200       0.50833000
    11  Cl         0.53345800       0.21176300       0.50833000
    12  Cl         0.28823700       0.53345800       0.50833000
    13  Cl         0.03345800       0.71176300       0.49167000
    14  Cl         0.78823700       0.03345800       0.49167000
    15  Cl         0.46654200       0.78823700       0.49167000
    16  Cl         0.71176300       0.46654200       0.49167000
    17  O          0.05196180       0.07743170       0.59303000
    18  O          0.42256830       0.05196180       0.59303000
    19  O          0.44803820       0.42256830       0.59303000
    20  O          0.07743170       0.44803820       0.59303000
    21  O          0.94803820       0.92256830       0.40697000
    22  O          0.57743170       0.94803820       0.40697000
    23  O          0.55196180       0.57743170       0.40697000
    24  O          0.92256830       0.55196180       0.40697000
    25  H          0.05066500       0.04751700       0.48733600
    26  H          0.45248300       0.05066500       0.48733600
    27  H          0.44933500       0.45248300       0.48733600
    28  H          0.04751700       0.44933500       0.48733600
    29  H          0.94933500       0.95248300       0.51266400
    30  H          0.54751700       0.94933500       0.51266400
    31  H          0.55066500       0.54751700       0.51266400
    32  H          0.95248300       0.55066500       0.51266400
    33  O          0.89118000       0.07592000       0.09909000
    34  O          0.42408000       0.89118000       0.09909000
    35  O          0.60882000       0.42408000       0.09909000
    36  O          0.07592000       0.60882000       0.09909000
    37  O          0.10882000       0.92408000       0.90091000
    38  O          0.57592000       0.10882000       0.90091000
    39  O          0.39118000       0.57592000       0.90091000
    40  O          0.92408000       0.39118000       0.90091000
    41  H          0.89653000       0.05103600      -0.02205500
    42  H          0.44896400       0.89653000      -0.02205500
    43  H          0.60347000       0.44896400      -0.02205500
    44  H          0.05103600       0.60347000      -0.02205500
    45  H          0.10347000       0.94896400       0.02205500
    46  H          0.55103600       0.10347000       0.02205500
    47  H          0.39653000       0.55103600       0.02205500
    48  H          0.94896400       0.39653000       0.02205500
    49  N          0.13902000       0.28523000       0.35469000
    50  N          0.21477000       0.13902000       0.35469000
    51  N          0.36098000       0.21477000       0.35469000
    52  N          0.28523000       0.36098000       0.35469000
    53  N          0.86098000       0.71477000       0.64531000
    54  N          0.78523000       0.86098000       0.64531000
    55  N          0.63902000       0.78523000       0.64531000
    56  N          0.71477000       0.63902000       0.64531000
    57  O          0.96048000       0.02422190       0.73252000
    58  O          0.47577810       0.96048000       0.73252000
    59  O          0.53952000       0.47577810       0.73252000
    60  O          0.02422190       0.53952000       0.73252000
    61  O          0.03952000       0.97577810       0.26748000
    62  O          0.52422190       0.03952000       0.26748000
    63  O          0.46048000       0.52422190       0.26748000
    64  O          0.97577810       0.46048000       0.26748000
    65  O          0.13832000       0.27953170       0.90423000
    66  O          0.22046830       0.13832000       0.90423000
    67  O          0.36168000       0.22046830       0.90423000
    68  O          0.27953170       0.36168000       0.90423000
    69  O          0.86168000       0.72046830       0.09577000
    70  O          0.77953170       0.86168000       0.09577000
    71  O          0.63832000       0.77953170       0.09577000
    72  O          0.72046830       0.63832000       0.09577000
    73  C          0.99288000       0.12502000       0.93081000
    74  C          0.37498000       0.99288000       0.93081000
    75  C          0.50712000       0.37498000       0.93081000
    76  C          0.12502000       0.50712000       0.93081000
    77  C          0.00712000       0.87498000       0.06919000
    78  C          0.62502000       0.00712000       0.06919000
    79  C          0.49288000       0.62502000       0.06919000
    80  C          0.87498000       0.49288000       0.06919000
    81  C          0.03352000       0.22802000       0.12129000
    82  C          0.27198000       0.03352000       0.12129000
    83  C          0.46648000       0.27198000       0.12129000
    84  C          0.22802000       0.46648000       0.12129000
    85  C          0.96648000       0.77198000       0.87871000
    86  C          0.72802000       0.96648000       0.87871000
    87  C          0.53352000       0.72802000       0.87871000
    88  C          0.77198000       0.53352000       0.87871000
    89  C          0.03962000       0.17642000       0.94681000
    90  C          0.32358000       0.03962000       0.94681000
    91  C          0.46038000       0.32358000       0.94681000
    92  C          0.17642000       0.46038000       0.94681000
    93  C          0.96038000       0.82358000       0.05319000
    94  C          0.67642000       0.96038000       0.05319000
    95  C          0.53962000       0.67642000       0.05319000
    96  C          0.82358000       0.53962000       0.05319000
    97  H          0.07615900       0.17637300       0.83796300
    98  H          0.32362700       0.07615900       0.83796300
    99  H          0.42384100       0.32362700       0.83796300
   100  H          0.17637300       0.42384100       0.83796300
   101  H          0.92384100       0.82362700       0.16203700
   102  H          0.67637300       0.92384100       0.16203700
   103  H          0.57615900       0.67637300       0.16203700
   104  H          0.82362700       0.57615900       0.16203700
   105  C          0.93177000       0.17523000       0.27361100
   106  C          0.32477000       0.93177000       0.27361100
   107  C          0.56823000       0.32477000       0.27361100
   108  C          0.17523000       0.56823000       0.27361100
   109  C          0.06823000       0.82477000       0.72638900
   110  C          0.67523000       0.06823000       0.72638900
   111  C          0.43177000       0.67523000       0.72638900
   112  C          0.82477000       0.43177000       0.72638900
   113  H          0.89560800       0.17504100       0.38421400
   114  H          0.32495900       0.89560800       0.38421400
   115  H          0.60439200       0.32495900       0.38421400
   116  H          0.17504100       0.60439200       0.38421400
   117  H          0.10439200       0.82495900       0.61578600
   118  H          0.67504100       0.10439200       0.61578600
   119  H          0.39560800       0.67504100       0.61578600
   120  H          0.82495900       0.39560800       0.61578600
   121  O          0.06097190       0.35561170       0.12099000
   122  O          0.14438830       0.06097190       0.12099000
   123  O          0.43902810       0.14438830       0.12099000
   124  O          0.35561170       0.43902810       0.12099000
   125  O          0.93902810       0.64438830       0.87901000
   126  O          0.85561170       0.93902810       0.87901000
   127  O          0.56097190       0.85561170       0.87901000
   128  O          0.64438830       0.56097190       0.87901000
   129  C          0.97817000       0.22642000       0.28351000
   130  C          0.27358000       0.97817000       0.28351000
   131  C          0.52183000       0.27358000       0.28351000
   132  C          0.22642000       0.52183000       0.28351000
   133  C          0.02183000       0.77358000       0.71649000
   134  C          0.72642000       0.02183000       0.71649000
   135  C          0.47817000       0.72642000       0.71649000
   136  C          0.77358000       0.47817000       0.71649000
   137  C          0.00073000       0.07123000       0.74529000
   138  C          0.42877000       0.00073000       0.74529000
   139  C          0.49927000       0.42877000       0.74529000
   140  C          0.07123000       0.49927000       0.74529000
   141  C         -0.00073000       0.92877000       0.25471000
   142  C          0.57123000      -0.00073000       0.25471000
   143  C          0.50073000       0.57123000       0.25471000
   144  C          0.92877000       0.50073000       0.25471000
   145  C          0.93867000       0.12343000       0.09821100
   146  C          0.37657000       0.93867000       0.09821100
   147  C          0.56133000       0.37657000       0.09821100
   148  C          0.12343000       0.56133000       0.09821100
   149  C          0.06133000       0.87657000       0.90178900
   150  C          0.62343000       0.06133000       0.90178900
   151  C          0.43867000       0.62343000       0.90178900
   152  C          0.87657000       0.43867000       0.90178900
   153  H          0.12630000       0.29330000       0.50750000
   154  H          0.20670000       0.12630000       0.50750000
   155  H          0.37370000       0.20670000       0.50750000
   156  H          0.29330000       0.37370000       0.50750000
   157  H          0.87370000       0.70670000       0.49250000
   158  H          0.79330000       0.87370000       0.49250000
   159  H          0.62630000       0.79330000       0.49250000
   160  H          0.70670000       0.62630000       0.49250000
   161  H          0.15740000       0.24520000       0.36215000
   162  H          0.25480000       0.15740000       0.36215000
   163  H          0.34260000       0.25480000       0.36215000
   164  H          0.24520000       0.34260000       0.36215000
   165  H          0.84260000       0.75480000       0.63785000
   166  H          0.74520000       0.84260000       0.63785000
   167  H          0.65740000       0.74520000       0.63785000
   168  H          0.75480000       0.65740000       0.63785000
