data_YUGWOP02
_symmetry_space_group_name_H-M    'P1'
_symmetry_Int_Tables_number       1
loop_
_symmetry_equiv_pos_site_id
_symmetry_equiv_pos_as_xyz
1 x,y,z
_cell_length_a                   5.48333
_cell_length_b                   9.68175
_cell_length_c                   17.75721
_cell_angle_alpha                90.0
_cell_angle_beta                 94.9015
_cell_angle_gamma                90.0
loop_
_atom_site_label
_atom_site_type_symbol
_atom_site_fract_x
_atom_site_fract_y
_atom_site_fract_z
     1  S          0.62070110       0.02475600       0.75259300
     2  S          0.37929890       0.52475600       0.74740700
     3  S          0.37929890       0.97524400       0.24740700
     4  S          0.62070110       0.47524400       0.25259300
     5  Cl         0.15843130       0.91039300       0.63920400
     6  Cl         0.84156870       0.41039300       0.86079600
     7  Cl         0.84156870       0.08960700       0.36079600
     8  Cl         0.15843130       0.58960700       0.13920400
     9  O          0.75023000       0.41743190       0.47492100
    10  O          0.24977000       0.91743190       0.02507900
    11  O          0.24977000       0.58256810       0.52507900
    12  O          0.75023000       0.08256810       0.97492100
    13  O          0.84053000       0.09356180       0.78065100
    14  O          0.15947000       0.59356180       0.71934900
    15  O          0.15947000       0.90643820       0.21934900
    16  O          0.84053000       0.40643820       0.28065100
    17  O         -0.02616000       0.39922000       0.58574100
    18  O          0.02616000       0.89922000       0.91425900
    19  O          0.02616000       0.60078000       0.41425900
    20  O         -0.02616000       0.10078000       0.08574100
    21  O          0.61454000       0.87711830       0.75217100
    22  O          0.38546000       0.37711830       0.74782900
    23  O          0.38546000       0.12288170       0.24782900
    24  O          0.61454000       0.62288170       0.25217100
    25  O          0.36334000       0.26102000       0.44954100
    26  O          0.63666000       0.76102000       0.05045900
    27  O          0.63666000       0.73898000       0.55045900
    28  O          0.36334000       0.23898000       0.94954100
    29  N          0.40614000       0.07843000       0.80243120
    30  N          0.59386000       0.57843000       0.69756880
    31  N          0.59386000       0.92157000       0.19756880
    32  N          0.40614000       0.42157000       0.30243120
    33  C          0.54864000       0.08662000       0.65937120
    34  C          0.45136000       0.58662000       0.84062880
    35  C          0.45136000       0.91338000       0.34062880
    36  C          0.54864000       0.41338000       0.15937120
    37  C          0.34544000       0.04152000       0.61226140
    38  C          0.65456000       0.54152000       0.88773860
    39  C          0.65456000       0.95848000       0.38773860
    40  C          0.34544000       0.45848000       0.11226140
    41  C          0.79244000       0.36332000       0.53803130
    42  C          0.20756000       0.86332000       0.96196870
    43  C          0.20756000       0.63668000       0.46196870
    44  C          0.79244000       0.13668000       0.03803130
    45  C          0.69094000       0.19142000       0.63392120
    46  C          0.30906000       0.69142000       0.86607880
    47  C          0.30906000       0.80858000       0.36607880
    48  C          0.69094000       0.30858000       0.13392120
    49  H          0.82574100       0.22215900       0.66469900
    50  H          0.17425900       0.72215900       0.83530100
    51  H          0.17425900       0.77784100       0.33530100
    52  H          0.82574100       0.27784100       0.16469900
    53  C          0.43354000       0.20692000       0.51764130
    54  C          0.56646000       0.70692000       0.98235870
    55  C          0.56646000       0.79308000       0.48235870
    56  C          0.43354000       0.29308000       0.01764130
    57  C          0.63804000       0.25272000       0.56333120
    58  C          0.36196000       0.75272000       0.93666880
    59  C          0.36196000       0.74728000       0.43666880
    60  C          0.63804000       0.24728000       0.06333120
    61  C          0.29015000       0.10133000       0.54296140
    62  C          0.70985000       0.60133000       0.95703860
    63  C          0.70985000       0.89867000       0.45703860
    64  C          0.29015000       0.39867000       0.04296140
    65  H          0.15452000       0.07065100       0.51246600
    66  H          0.84548000       0.57065100       0.98753400
    67  H          0.84548000       0.92934900       0.48753400
    68  H          0.15452000       0.42934900       0.01246600
    69  H          0.39160000       0.16811900       0.79631700
    70  H          0.60840000       0.66811900       0.70368300
    71  H          0.60840000       0.83188100       0.20368300
    72  H          0.39160000       0.33188100       0.29631700
    73  H          0.26640000       0.03630000       0.78981700
    74  H          0.73360000       0.53630000       0.71018300
    75  H          0.73360000       0.96370000       0.21018300
    76  H          0.26640000       0.46370000       0.28981700
    77  H          0.48050000       0.31630000       0.44120000
    78  H          0.51950000       0.81630000       0.05880000
    79  H          0.51950000       0.68370000       0.55880000
    80  H          0.48050000       0.18370000       0.94120000
    81  H          0.06250000       0.46630000       0.56751700
    82  H          0.93750000       0.96630000       0.93248300
    83  H          0.93750000       0.53370000       0.43248300
    84  H          0.06250000       0.03370000       0.06751700
