data_YUGWOP03
_symmetry_space_group_name_H-M    'P1'
_symmetry_Int_Tables_number       1
loop_
_symmetry_equiv_pos_site_id
_symmetry_equiv_pos_as_xyz
1 x,y,z
_cell_length_a                   9.53283
_cell_length_b                   6.08242
_cell_length_c                   16.11105
_cell_angle_alpha                90.0
_cell_angle_beta                 95.4343
_cell_angle_gamma                90.0
loop_
_atom_site_label
_atom_site_type_symbol
_atom_site_fract_x
_atom_site_fract_y
_atom_site_fract_z
     1  S          0.17233600       0.28748900       0.33221300
     2  S          0.82766400       0.78748900       0.16778700
     3  S          0.82766400       0.71251100       0.66778700
     4  S          0.17233600       0.21251100       0.83221300
     5  Cl         0.01647700       0.73207100       0.39113400
     6  Cl         0.98352300       0.23207100       0.10886600
     7  Cl         0.98352300       0.26792900       0.60886600
     8  Cl         0.01647700       0.76792900       0.89113400
     9  O          0.02527180       0.23753000       0.32508110
    10  O          0.97472820       0.73753000       0.17491890
    11  O          0.97472820       0.76247000       0.67491890
    12  O          0.02527180       0.26247000       0.82508110
    13  O          0.27260190       0.11193000       0.32817100
    14  O          0.72739810       0.61193000       0.17182900
    15  O          0.72739810       0.88807000       0.67182900
    16  O          0.27260190       0.38807000       0.82817100
    17  O          0.50448190       0.38474000       0.69033110
    18  O          0.49551810       0.88474000       0.80966890
    19  O          0.49551810       0.61526000       0.30966890
    20  O          0.50448190       0.11526000       0.19033110
    21  O          0.51993000       0.13134000       0.59248130
    22  O          0.48007000       0.63134000       0.90751870
    23  O          0.48007000       0.86866000       0.40751870
    24  O          0.51993000       0.36866000       0.09248130
    25  O          0.32553000       0.71164000       0.65880140
    26  O          0.67447000       0.21164000       0.84119860
    27  O          0.67447000       0.28836000       0.34119860
    28  O          0.32553000       0.78836000       0.15880140
    29  N          0.19782000       0.45514000       0.25884120
    30  N          0.80218000       0.95514000       0.24115880
    31  N          0.80218000       0.54486000       0.74115880
    32  N          0.19782000       0.04486000       0.75884120
    33  C          0.21542000       0.41674000       0.43038120
    34  C          0.78458000       0.91674000       0.06961880
    35  C          0.78458000       0.58326000       0.56961880
    36  C          0.21542000       0.08326000       0.93038120
    37  C          0.35742000       0.41474000       0.56364130
    38  C          0.64258000       0.91474000       0.93635870
    39  C          0.64258000       0.58526000       0.43635870
    40  C          0.35742000       0.08526000       0.06364130
    41  C          0.31782000       0.32174000       0.48527140
    42  C          0.68218000       0.82174000       0.01472860
    43  C          0.68218000       0.67826000       0.51472860
    44  C          0.31782000       0.17826000       0.98527140
    45  H          0.36153100       0.19318800       0.46992400
    46  H          0.63846900       0.69318800       0.03007600
    47  H          0.63846900       0.80681200       0.53007600
    48  H          0.36153100       0.30681200       0.96992400
    49  C          0.14972000       0.60984000       0.45486130
    50  C          0.85028000       0.10984000       0.04513870
    51  C          0.85028000       0.39016000       0.54513870
    52  C          0.14972000       0.89016000       0.95486130
    53  C          0.29303000       0.60924000       0.58576140
    54  C          0.70697000       0.10924000       0.91423860
    55  C          0.70697000       0.39076000       0.41423860
    56  C          0.29303000       0.89076000       0.08576140
    57  C          0.46613000       0.31095000       0.62157150
    58  C          0.53387000       0.81095000       0.87842850
    59  C          0.53387000       0.68905000       0.37842850
    60  C          0.46613000       0.18905000       0.12157150
    61  C          0.18863000       0.70654000       0.53112160
    62  C          0.81137000       0.20654000       0.96887840
    63  C          0.81137000       0.29346000       0.46887840
    64  C          0.18863000       0.79346000       0.03112160
    65  H          0.14548200       0.83583900       0.54603200
    66  H          0.85451800       0.33583900       0.95396800
    67  H          0.85451800       0.16416100       0.45396800
    68  H          0.14548200       0.66416100       0.04603200
    69  H          0.28220000       0.52350000       0.26320000
    70  H          0.71780000       0.02350000       0.23680000
    71  H          0.71780000       0.47650000       0.73680000
    72  H          0.28220000       0.97650000       0.76320000
    73  H          0.13330000       0.55640000       0.24620000
    74  H          0.86670000       0.05640000       0.25380000
    75  H          0.86670000       0.44360000       0.75380000
    76  H          0.13330000       0.94360000       0.74620000
    77  H          0.38730000       0.63870000       0.68420000
    78  H          0.61270000       0.13870000       0.81580000
    79  H          0.61270000       0.36130000       0.31580000
    80  H          0.38730000       0.86130000       0.18420000
    81  H          0.58530000       0.07970000       0.62420000
    82  H          0.41470000       0.57970000       0.87580000
    83  H          0.41470000       0.92030000       0.37580000
    84  H          0.58530000       0.42030000       0.12420000
