data_ZECZIQ
_symmetry_space_group_name_H-M    'P1'
_symmetry_Int_Tables_number       1
loop_
_symmetry_equiv_pos_site_id
_symmetry_equiv_pos_as_xyz
1 x,y,z
_cell_length_a                   13.4184
_cell_length_b                   5.7204
_cell_length_c                   17.8403
_cell_angle_alpha                90.0
_cell_angle_beta                 110.792
_cell_angle_gamma                90.0
loop_
_atom_site_label
_atom_site_type_symbol
_atom_site_fract_x
_atom_site_fract_y
_atom_site_fract_z
     1  O          0.01904000       0.04131000       0.86173000
     2  O          0.98096000       0.54131000       0.63827000
     3  O          0.98096000       0.95869000       0.13827000
     4  O          0.01904000       0.45869000       0.36173000
     5  O          0.93216000       0.33961000       0.88483000
     6  O          0.06784000       0.83961000       0.61517000
     7  O          0.06784000       0.66039000       0.11517000
     8  O          0.93216000       0.16039000       0.38483000
     9  C          0.00555000       0.20601400       0.91214000
    10  C         -0.00555000       0.70601400       0.58786000
    11  C         -0.00555000       0.79398600       0.08786000
    12  C          0.00555000       0.29398600       0.41214000
    13  C          0.08315000       0.21231500      -0.00696000
    14  C          0.91685000       0.71231500       0.50696000
    15  C          0.91685000       0.78768500       0.00696000
    16  C          0.08315000       0.28768500       0.49304000
    17  C          0.16385000       0.05211300       0.02014000
    18  C          0.83615000       0.55211300       0.47986000
    19  C          0.83615000       0.94788700       0.97986000
    20  C          0.16385000       0.44788700       0.52014000
    21  C          0.24765000       0.69058600       0.98465000
    22  C          0.75235000       0.19058600       0.51535000
    23  C          0.75235000       0.30941400       0.01535000
    24  C          0.24765000       0.80941400       0.48465000
    25  C          0.25117000       0.53208200       0.92896000
    26  C          0.74883000       0.03208200       0.57104000
    27  C          0.74883000       0.46791800       0.07104000
    28  C          0.25117000       0.96791800       0.42896000
    29  C          0.17987000       0.54218200       0.85116000
    30  C          0.82013000       0.04218200       0.64884000
    31  C          0.82013000       0.45781800       0.14884000
    32  C          0.17987000       0.95781800       0.35116000
    33  C          0.10307000       0.71688300       0.82985000
    34  C          0.89693000       0.21688300       0.67015000
    35  C          0.89693000       0.28311700       0.17015000
    36  C          0.10307000       0.78311700       0.32985000
    37  C          0.09895000       0.87308600       0.88694000
    38  C          0.90105000       0.37308600       0.61306000
    39  C          0.90105000       0.12691400       0.11306000
    40  C          0.09895000       0.62691400       0.38694000
    41  C          0.17245000       0.87258600       0.96544000
    42  C          0.82755000       0.37258600       0.53456000
    43  C          0.82755000       0.12741400       0.03456000
    44  C          0.17245000       0.62741400       0.46544000
    45  C          0.24225000       0.06891500       0.10234000
    46  C          0.75775000       0.56891500       0.39766000
    47  C          0.75775000       0.93108500       0.89766000
    48  C          0.24225000       0.43108500       0.60234000
    49  C          0.25405000       0.24291500       0.15134000
    50  C          0.74595000       0.74291500       0.34866000
    51  C          0.74595000       0.75708500       0.84866000
    52  C          0.25405000       0.25708500       0.65134000
    53  C          0.33045000       0.26501300       0.23334000
    54  C          0.66955000       0.76501300       0.26666000
    55  C          0.66955000       0.73498700       0.76666000
    56  C          0.33045000       0.23498700       0.73334000
    57  C          0.32326000       0.45641600       0.27845000
    58  C          0.67674000       0.95641600       0.22155000
    59  C          0.67674000       0.54358400       0.72155000
    60  C          0.32326000       0.04358400       0.77845000
    61  C          0.39216000       0.48341700       0.35625000
    62  C          0.60784000      -0.01658300       0.14375000
    63  C          0.60784000       0.51658300       0.64375000
    64  C          0.39216000       0.01658300       0.85625000
    65  C          0.46946000       0.31611500       0.39074000
    66  C          0.53054000       0.81611500       0.10926000
    67  C          0.53054000       0.68388500       0.60926000
    68  C          0.46946000       0.18388500       0.89074000
    69  C          0.47726000       0.12721600       0.34714000
    70  C          0.52274000       0.62721600       0.15286000
    71  C          0.52274000       0.87278400       0.65286000
    72  C          0.47726000       0.37278400       0.84714000
    73  C          0.41035000       0.09871400       0.26894000
    74  C          0.58965000       0.59871400       0.23106000
    75  C          0.58965000       0.90128600       0.73106000
    76  C          0.41035000       0.40128600       0.76894000
    77  H          0.07060000       0.32214000       0.03040000
    78  H          0.92940000       0.82214000       0.46960000
    79  H          0.92940000       0.67786000       0.96960000
    80  H          0.07060000       0.17786000       0.53040000
    81  H          0.29040000       0.67189000       0.04130000
    82  H          0.70960000       0.17189000       0.45870000
    83  H          0.70960000       0.32811000       0.95870000
    84  H          0.29040000       0.82811000       0.54130000
    85  H          0.30480000       0.40681000       0.95060000
    86  H          0.69520000       0.90681000       0.54940000
    87  H          0.69520000       0.59319000       0.04940000
    88  H          0.30480000       0.09319000       0.45060000
    89  H          0.18680000       0.41181000       0.81360000
    90  H          0.81320000       0.91181000       0.68640000
    91  H          0.81320000       0.58819000       0.18640000
    92  H          0.18680000       0.08819000       0.31360000
    93  H          0.05360000       0.74786000       0.76650000
    94  H          0.94640000       0.24786000       0.73350000
    95  H          0.94640000       0.25214000       0.23350000
    96  H          0.05360000       0.75214000       0.26650000
    97  H          0.28950000       0.93489000       0.11830000
    98  H          0.71050000       0.43489000       0.38170000
    99  H          0.71050000       0.06511000       0.88170000
   100  H          0.28950000       0.56511000       0.61830000
   101  H          0.20460000       0.38214000       0.13240000
   102  H          0.79540000       0.88214000       0.36760000
   103  H          0.79540000       0.61786000       0.86760000
   104  H          0.20460000       0.11786000       0.63240000
   105  H          0.50760000       0.33015000       0.45250000
   106  H          0.49240000       0.83015000       0.04750000
   107  H          0.49240000       0.66985000       0.54750000
   108  H          0.50760000       0.16985000       0.95250000
   109  H          0.52750000      -0.00813000       0.36940000
   110  H          0.47250000       0.49187000       0.13060000
   111  H          0.47250000       0.00813000       0.63060000
   112  H          0.52750000       0.50813000       0.86940000
   113  H          0.41550000       0.94887000       0.24140000
   114  H          0.58450000       0.44887000       0.25860000
   115  H          0.58450000       0.05113000       0.75860000
   116  H          0.41550000       0.55113000       0.74140000
   117  H          0.26760000       0.58215000       0.25950000
   118  H          0.73240000       0.08215000       0.24050000
   119  H          0.73240000       0.41785000       0.74050000
   120  H          0.26760000       0.91785000       0.75950000
   121  H          0.38770000       0.64418000       0.38350000
   122  H          0.61230000       0.14418000       0.11650000
   123  H          0.61230000       0.35582000       0.61650000
   124  H          0.38770000       0.85582000       0.88350000
