data_ZECZIQ02
_symmetry_space_group_name_H-M    'P1'
_symmetry_Int_Tables_number       1
loop_
_symmetry_equiv_pos_site_id
_symmetry_equiv_pos_as_xyz
1 x,y,z
_cell_length_a                   17.0573
_cell_length_b                   8.2293
_cell_length_c                   18.2613
_cell_angle_alpha                90.0
_cell_angle_beta                 96.332
_cell_angle_gamma                90.0
loop_
_atom_site_label
_atom_site_type_symbol
_atom_site_fract_x
_atom_site_fract_y
_atom_site_fract_z
     1  O         -0.00315900       0.22597190       0.92422700
     2  O          0.50315900       0.72597190       0.57577300
     3  O          0.00315900       0.77402810       0.07577300
     4  O          0.49684100       0.27402810       0.42422700
     5  O          0.89500900       0.08602000       0.87622800
     6  O          0.60499100       0.58602000       0.62377200
     7  O          0.10499100       0.91398000       0.12377200
     8  O          0.39500900       0.41398000       0.37622800
     9  C          0.93031870       0.13843000       0.93222120
    10  C          0.56968130       0.63843000       0.56777880
    11  C          0.06968130       0.86157000       0.06777880
    12  C          0.43031870       0.36157000       0.43222120
    13  C          0.90856860       0.11903000       0.00521120
    14  C          0.59143140       0.61903000       0.49478880
    15  C          0.09143140       0.88097000      -0.00521120
    16  C          0.40856860       0.38097000       0.50521120
    17  H          0.86218600       0.06130000       0.00701200
    18  H          0.63781400       0.56130000       0.49298800
    19  H          0.13781400       0.93870000      -0.00701200
    20  H          0.36218600       0.43870000       0.50701200
    21  C          0.94914880       0.18563000       0.06512110
    22  C          0.55085120       0.68563000       0.43487890
    23  C          0.05085120       0.81437000       0.93487890
    24  C          0.44914880       0.31437000       0.56512110
    25  C          0.06823140       0.35323000       0.11147130
    26  C          0.43176860       0.85323000       0.38852870
    27  C          0.93176860       0.64677000       0.88852870
    28  C          0.56823140       0.14677000       0.61147130
    29  H          0.05631300       0.34430000       0.16291300
    30  H          0.44368700       0.84430000       0.33708700
    31  H          0.94368700       0.65570000       0.83708700
    32  H          0.55631300       0.15570000       0.66291300
    33  C          0.15145150       0.45533000       0.02549150
    34  C          0.34854850       0.95533000       0.47450850
    35  C          0.84854850       0.54467000       0.97450850
    36  C          0.65145150       0.04467000       0.52549150
    37  H          0.20031600       0.51730000       0.01671300
    38  H          0.29968400       0.01730000       0.48328700
    39  H          0.79968400       0.48270000       0.98328700
    40  H          0.70031600       0.98270000       0.51671300
    41  C          0.10568150       0.38123000       0.96867140
    42  C          0.39431850       0.88123000       0.53132860
    43  C          0.89431850       0.61877000       0.03132860
    44  C          0.60568150       0.11877000       0.46867140
    45  H          0.11541400       0.39330000       0.91761400
    46  H          0.38458600       0.89330000       0.58238600
    47  H          0.88458600       0.60670000       0.08238600
    48  H          0.61541400       0.10670000       0.41761400
    49  C          0.01942120       0.27803000       0.05479110
    50  C          0.48057880       0.77803000       0.44520890
    51  C          0.98057880       0.72197000       0.94520890
    52  C          0.51942120       0.22197000       0.55479110
    53  C          0.04048120       0.29483000       0.98398110
    54  C          0.45951880       0.79483000       0.51601890
    55  C          0.95951880       0.70517000       0.01601890
    56  C          0.54048120       0.20517000       0.48398110
    57  C          0.87104850       0.07483000       0.16002130
    58  C          0.62895150       0.57483000       0.33997870
    59  C          0.12895150       0.92517000       0.83997870
    60  C          0.37104850       0.42517000       0.66002130
    61  H          0.84498500       0.00630000       0.12491400
    62  H          0.65501500       0.50630000       0.37508600
    63  H          0.15501500      -0.00630000       0.87508600
    64  H          0.34498500       0.49370000       0.62491400
    65  C          0.84617860       0.06423000       0.23378130
    66  C          0.65382140       0.56423000       0.26621870
    67  C          0.15382140       0.93577000       0.76621870
    68  C          0.34617860       0.43577000       0.73378130
    69  C          0.85308000       0.15065000       0.35996160
    70  C          0.64692000       0.65065000       0.14003840
    71  C          0.14692000       0.84935000       0.64003840
    72  C          0.35308000       0.34935000       0.85996160
    73  H          0.87848200       0.22140000       0.40011800
    74  H          0.62151800       0.72140000       0.09988200
    75  H          0.12151800       0.77860000       0.59988200
    76  H          0.37848200       0.27860000       0.90011800
    77  C          0.92491850       0.16913000       0.13898130
    78  C          0.57508150       0.66913000       0.36101870
    79  C          0.07508150       0.83087000       0.86101870
    80  C          0.42491850       0.33087000       0.63898130
    81  H          0.95128600       0.24130000       0.17441300
    82  H          0.54871400       0.74130000       0.32558700
    83  H          0.04871400       0.75870000       0.82558700
    84  H          0.45128600       0.25870000       0.67441300
    85  C          0.13280150       0.44033000       0.09668140
    86  C          0.36719850       0.94033000       0.40331860
    87  C          0.86719850       0.55967000       0.90331860
    88  C          0.63280150       0.05967000       0.59668140
    89  H          0.16731500       0.49730000       0.13781400
    90  H          0.33268500      -0.00270000       0.36218600
    91  H          0.83268500       0.50270000       0.86218600
    92  H          0.66731500       0.00270000       0.63781400
    93  C          0.87832830       0.16114000       0.29128140
    94  C          0.62167170       0.66114000       0.20871860
    95  C          0.12167170       0.83886000       0.70871860
    96  C          0.37832830       0.33886000       0.79128140
    97  H          0.92268300       0.23540000       0.28381500
    98  H          0.57731700       0.73540000       0.21618500
    99  H          0.07731700       0.76460000       0.71618500
   100  H          0.42268300       0.26460000       0.78381500
   101  C          0.78771810       0.95696000       0.24763180
   102  C          0.71228190       0.45696000       0.25236820
   103  C          0.21228190       0.04304000       0.75236820
   104  C          0.28771810       0.54304000       0.74763180
   105  H          0.76588100       0.89260000       0.20831700
   106  H          0.73411900       0.39260000       0.29168300
   107  H          0.23411900       0.10740000       0.79168300
   108  H          0.26588100       0.60740000       0.70831700
   109  C          0.79568000       0.04196000       0.37262000
   110  C          0.70432000       0.54196000       0.12738000
   111  C          0.20432000       0.95804000       0.62738000
   112  C          0.29568000       0.45804000       0.87262000
   113  H          0.78128100       0.04340000       0.42421900
   114  H          0.71871900       0.54340000       0.07578100
   115  H          0.21871900       0.95660000       0.57578100
   116  H          0.28128100       0.45660000       0.92421900
   117  C          0.76308000       0.94864000       0.31712000
   118  C          0.73692000       0.44864000       0.18288000
   119  C          0.23692000       0.05136000       0.68288000
   120  C          0.26308000       0.55136000       0.81712000
   121  H          0.72580000       0.87250000       0.32420000
   122  H          0.77420000       0.37250000       0.17580000
   123  H          0.27420000       0.12750000       0.67580000
   124  H          0.22580000       0.62750000       0.82420000
   125  C          0.28048160       0.14623000       0.10279120
   126  C          0.21951840       0.64623000       0.39720880
   127  C          0.71951840       0.85377000       0.89720880
   128  C          0.78048160       0.35377000       0.60279120
   129  H          0.22571500       0.15330000       0.09931300
   130  H          0.27428500       0.65330000       0.40068700
   131  H          0.77428500       0.84670000       0.90068700
   132  H          0.72571500       0.34670000       0.59931300
   133  O          0.39370100       0.10452000       0.03907800
   134  O          0.10629900       0.60452000       0.46092200
   135  O          0.60629900       0.89548000       0.96092200
   136  O          0.89370100       0.39548000       0.53907800
   137  C          0.32410130       0.16213000       0.16874110
   138  C          0.17589870       0.66213000       0.33125890
   139  C          0.67589870       0.83787000       0.83125890
   140  C          0.82410130       0.33787000       0.66874110
   141  C          0.44083150       0.11923000       0.10525120
   142  C          0.05916850       0.61923000       0.39474880
   143  C          0.55916850       0.88077000       0.89474880
   144  C          0.94083150       0.38077000       0.60525120
   145  C          0.20628160       0.22623000       0.37666130
   146  C          0.29371840       0.72623000       0.12333870
   147  C          0.79371840       0.77377000       0.62333870
   148  C          0.70628160       0.27377000       0.87666130
   149  H          0.25501500       0.28130000       0.37911300
   150  H          0.24498500       0.78130000       0.12088700
   151  H          0.74498500       0.71870000       0.62088700
   152  H          0.75501500       0.21870000       0.87911300
   153  C          0.17534130       0.14753000       0.31216120
   154  C          0.32465870       0.64753000       0.18783880
   155  C          0.82465870       0.85247000       0.68783880
   156  C          0.67534130       0.35247000       0.81216120
   157  C          0.16777190       0.21884000       0.43891150
   158  C          0.33222810       0.71884000       0.06108850
   159  C          0.83222810       0.78116000       0.56108850
   160  C          0.66777190       0.28116000       0.93891150
   161  H          0.19241600       0.26640000       0.48531500
   162  H          0.30758400       0.76640000       0.01468500
   163  H          0.80758400       0.73360000       0.51468500
   164  H          0.69241600       0.23360000       0.98531500
   165  C          0.21586150       0.13883000       0.24577120
   166  C          0.28413850       0.63883000       0.25422880
   167  C          0.78413850       0.86117000       0.75422880
   168  C          0.71586150       0.36117000       0.74577120
   169  H          0.18651300       0.08230000       0.20551300
   170  H          0.31348700       0.58230000       0.29448700
   171  H          0.81348700       0.91770000       0.79448700
   172  H          0.68651300       0.41770000       0.70551300
   173  C          0.10452150       0.06683000       0.31283150
   174  C          0.39547850       0.56683000       0.18716850
   175  C          0.89547850       0.93317000       0.68716850
   176  C          0.60452150       0.43317000       0.81283150
   177  H          0.08401500       0.01530000       0.27071400
   178  H          0.41598500       0.51530000       0.22928600
   179  H          0.91598500      -0.01530000       0.72928600
   180  H          0.58401500       0.48470000       0.77071400
   181  C          0.28762140       0.18873000       0.23650120
   182  C          0.21237860       0.68873000       0.26349880
   183  C          0.71237860       0.81127000       0.76349880
   184  C          0.78762140       0.31127000       0.73650120
   185  H          0.32001300       0.25130000       0.27671300
   186  H          0.17998700       0.75130000       0.22328700
   187  H          0.67998700       0.74870000       0.72328700
   188  H          0.82001300       0.24870000       0.77671300
   189  C          0.06630180       0.05994000       0.37520180
   190  C          0.43369820       0.55994000       0.12479820
   191  C          0.93369820       0.94006000       0.62479820
   192  C          0.56630180       0.44006000       0.87520180
   193  H          0.01681800      -0.00540000       0.37311500
   194  H          0.48318200       0.49460000       0.12688500
   195  H          0.98318200       0.00540000       0.62688500
   196  H          0.51681800       0.50540000       0.87311500
   197  C          0.09832000       0.13474000       0.43860180
   198  C          0.40168000       0.63474000       0.06139820
   199  C          0.90168000       0.86526000       0.56139820
   200  C          0.59832000       0.36526000       0.93860180
   201  H          0.07241700       0.12040000       0.48341600
   202  H          0.42758300       0.62040000       0.01658400
   203  H          0.92758300       0.87960000       0.51658400
   204  H          0.57241700       0.37960000       0.98341600
   205  C          0.40908140       0.14803000       0.17067120
   206  C          0.09091860       0.64803000       0.32932880
   207  C          0.59091860       0.85197000       0.82932880
   208  C          0.90908140       0.35197000       0.67067120
   209  C          0.46240160       0.16074000       0.23422140
   210  C          0.03759840       0.66074000       0.26577860
   211  C          0.53759840       0.83926000       0.76577860
   212  C          0.96240160       0.33926000       0.73422140
   213  H          0.44031500       0.18430000       0.27961500
   214  H          0.05968500       0.68430000       0.22038500
   215  H          0.55968500       0.81570000       0.72038500
   216  H          0.94031500       0.31570000       0.77961500
   217  O          0.27662120       0.08853000       0.97617900
   218  O          0.22337880       0.58853000       0.52382100
   219  O          0.72337880       0.91147000       0.02382100
   220  O          0.77662120       0.41147000       0.47617900
   221  C          0.31290160       0.11173000       0.03589130
   222  C          0.18709840       0.61173000       0.46410870
   223  C          0.68709840       0.88827000       0.96410870
   224  C          0.81290160       0.38827000       0.53589130
   225  C          0.52058170       0.10304000       0.10200170
   226  C          0.97941830       0.60304000       0.39799830
   227  C          0.47941830       0.89696000       0.89799830
   228  C          0.02058170       0.39696000       0.60200170
   229  H          0.53971700       0.08640000       0.05591600
   230  H          0.96028300       0.58640000       0.44408400
   231  H          0.46028300       0.91360000       0.94408400
   232  H          0.03971700       0.41360000       0.55591600
   233  C          0.57104190       0.11735000       0.16526190
   234  C          0.92895810       0.61735000       0.33473810
   235  C          0.42895810       0.88265000       0.83473810
   236  C          0.07104190       0.38265000       0.66526190
   237  H          0.62411900       0.11140000       0.16511600
   238  H          0.87588100       0.61140000       0.33488400
   239  H          0.37588100       0.88860000       0.83488400
   240  H          0.12411900       0.38860000       0.66511600
   241  C          0.54165180       0.14565000       0.23159170
   242  C          0.95834820       0.64565000       0.26840830
   243  C          0.45834820       0.85435000       0.76840830
   244  C          0.04165180       0.35435000       0.73159170
   245  H          0.57821800       0.15840000       0.27391700
   246  H          0.92178200       0.65840000       0.22608300
   247  H          0.42178200       0.84160000       0.72608300
   248  H          0.07821800       0.34160000       0.77391700
