data_ZECZIQ01
_symmetry_space_group_name_H-M    'P1'
_symmetry_Int_Tables_number       1
loop_
_symmetry_equiv_pos_site_id
_symmetry_equiv_pos_as_xyz
1 x,y,z
_cell_length_a                   11.0822
_cell_length_b                   11.2153
_cell_length_c                   12.1273
_cell_angle_alpha                102.352
_cell_angle_beta                 116.412
_cell_angle_gamma                98.622
loop_
_atom_site_label
_atom_site_type_symbol
_atom_site_fract_x
_atom_site_fract_y
_atom_site_fract_z
     1  O          0.24983000       0.90543000       0.21042000
     2  O          0.75017000       0.09457000       0.78958000
     3  O          0.06793000       0.73563000       0.11233000
     4  O          0.93207000       0.26437000       0.88767000
     5  C          0.14124000       0.82604000       0.20914000
     6  C          0.85876000       0.17396000       0.79086000
     7  C          0.12714000       0.85794000       0.32284000
     8  C          0.87286000       0.14206000       0.67716000
     9  C          0.21574000       0.95833000       0.42853000
    10  C          0.78426000       0.04167000       0.57147000
    11  C          0.42455000       0.15164000       0.52554000
    12  C          0.57545000       0.84836000       0.47446000
    13  C          0.52825000       0.22244000       0.51535000
    14  C          0.47175000       0.77756000       0.48465000
    15  C          0.53885000       0.18785000       0.40566000
    16  C          0.46115000       0.81215000       0.59434000
    17  C          0.44435000       0.08185000       0.30435000
    18  C          0.55565000       0.91815000       0.69565000
    19  C          0.33984000       0.01134000       0.31604000
    20  C          0.66016000      -0.01134000       0.68396000
    21  C          0.32604000       0.04193000       0.42514000
    22  C          0.67396000       0.95807000       0.57486000
    23  C          0.20724000       0.98244000       0.54704000
    24  C          0.79276000       0.01756000       0.45296000
    25  C          0.12075000       0.91004000       0.56774000
    26  C          0.87925000       0.08996000       0.43226000
    27  C          0.11504000       0.92923000       0.68903000
    28  C          0.88496000       0.07077000       0.31097000
    29  C          0.00125000       0.85974000       0.68825000
    30  C         -0.00125000       0.14026000       0.31175000
    31  C         -0.00706000       0.87385000       0.79906000
    32  C          0.00706000       0.12615000       0.20094000
    33  C          0.10038000       0.95696000       0.91426000
    34  C          0.89962000       0.04304000       0.08574000
    35  C          0.21678000       0.02555000       0.91825000
    36  C          0.78322000       0.97445000       0.08175000
    37  C          0.22455000       0.01304000       0.80584000
    38  C          0.77545000      -0.01304000       0.19416000
    39  H          0.05040000       0.79740000       0.32240000
    40  H          0.94960000       0.20260000       0.67760000
    41  H          0.41140000       0.17840000       0.59440000
    42  H          0.58860000       0.82160000       0.40560000
    43  H          0.59940000       0.29940000       0.58540000
    44  H          0.40060000       0.70060000       0.41460000
    45  H          0.61450000       0.23740000       0.40140000
    46  H          0.38550000       0.76260000       0.59860000
    47  H          0.44440000       0.05140000       0.22540000
    48  H          0.55560000       0.94860000       0.77460000
    49  H          0.27640000       0.06140000       0.62040000
    50  H          0.72360000       0.93860000       0.37960000
    51  H          0.04250000       0.84650000       0.49650000
    52  H          0.95750000       0.15350000       0.50350000
    53  H          0.91660000       0.79940000       0.60040000
    54  H          0.08340000       0.20060000       0.39960000
    55  H          0.90540000       0.81850000       0.79550000
    56  H          0.09460000       0.18150000       0.20450000
    57  H          0.09750000       0.96540000      -0.00150000
    58  H          0.90250000       0.03460000       0.00150000
    59  H          0.29260000       0.08250000      -0.00140000
    60  H          0.70740000       0.91750000       0.00140000
    61  H          0.31240000       0.05040000       0.80940000
    62  H          0.68760000       0.94960000       0.19060000
    63  O          0.39442000       0.31672000       0.80922000
    64  O          0.60558000       0.68328000       0.19078000
    65  O          0.18013000       0.32493000       0.68902000
    66  O          0.81987000       0.67507000       0.31098000
    67  C          0.26934000       0.33403000       0.79703000
    68  C          0.73066000       0.66597000       0.20297000
    69  C          0.25684000       0.35844000       0.91163000
    70  C          0.74316000       0.64156000       0.08837000
    71  C          0.35943000       0.36373000       0.02883000
    72  C          0.64057000       0.63627000       0.97117000
    73  C          0.60444000       0.34224000       0.15174000
    74  C          0.39556000       0.65776000       0.84826000
    75  C          0.72334000       0.31914000       0.15064000
    76  C          0.27666000       0.68086000       0.84936000
    77  C          0.73094000       0.29714000       0.03864000
    78  C          0.26906000       0.70286000       0.96136000
    79  C          0.61984000       0.29674000       0.92614000
    80  C          0.38016000       0.70326000       0.07386000
    81  C          0.50144000       0.31883000       0.92643000
    82  C          0.49856000       0.68117000       0.07357000
    83  C          0.48903000       0.34123000       0.03743000
    84  C          0.51097000       0.65877000       0.96257000
    85  C          0.34204000       0.38674000       0.14344000
    86  C          0.65796000       0.61326000       0.85656000
    87  C          0.24384000       0.42924000       0.15554000
    88  C          0.75616000       0.57076000       0.84446000
    89  C          0.22193000       0.45263000       0.26803000
    90  C          0.77807000       0.54737000       0.73197000
    91  C          0.11724000       0.50634000       0.26564000
    92  C          0.88276000       0.49366000       0.73436000
    93  C          0.09264000       0.52814000       0.37004000
    94  C          0.90736000       0.47186000       0.62996000
    95  C          0.17324000       0.49644000       0.47734000
    96  C          0.82676000       0.50356000       0.52266000
    97  C          0.27814000       0.44314000       0.48164000
    98  C          0.72186000       0.55686000       0.51836000
    99  C          0.30364000       0.42284000       0.37854000
   100  C          0.69636000       0.57716000       0.62146000
   101  H          0.16740000       0.36130000       0.89540000
   102  H          0.83260000       0.63870000       0.10460000
   103  H          0.59240000       0.35330000       0.22740000
   104  H          0.40760000       0.64670000       0.77260000
   105  H          0.79640000       0.32130000       0.23040000
   106  H          0.20360000       0.67870000       0.76960000
   107  H          0.81440000       0.27830000       0.04230000
   108  H          0.18560000       0.72170000       0.95770000
   109  H          0.62440000       0.28730000       0.85330000
   110  H          0.37560000       0.71270000       0.14670000
   111  H          0.40340000       0.36430000       0.21240000
   112  H          0.59660000       0.63570000       0.78760000
   113  H          0.18340000       0.45530000       0.08740000
   114  H          0.81660000       0.54470000       0.91260000
   115  H          0.06340000       0.52440000       0.18840000
   116  H          0.93660000       0.47560000       0.81160000
   117  H          0.01540000       0.56530000       0.36330000
   118  H         -0.01540000       0.43470000       0.63670000
   119  H          0.15440000       0.51030000       0.55340000
   120  H          0.84560000       0.48970000       0.44660000
   121  H          0.33840000       0.41940000       0.56440000
   122  H          0.66160000       0.58060000       0.43560000
   123  H          0.37830000       0.38430000       0.38430000
   124  H          0.62170000       0.61570000       0.61570000
