data_ZEHZEU03
_symmetry_space_group_name_H-M    'P1'
_symmetry_Int_Tables_number       1
loop_
_symmetry_equiv_pos_site_id
_symmetry_equiv_pos_as_xyz
1 x,y,z
_cell_length_a                   11.01366
_cell_length_b                   5.34403
_cell_length_c                   17.262711
_cell_angle_alpha                90.0
_cell_angle_beta                 91.4045
_cell_angle_gamma                90.0
loop_
_atom_site_label
_atom_site_type_symbol
_atom_site_fract_x
_atom_site_fract_y
_atom_site_fract_z
     1  F          0.40594140       0.87993000       0.69416900
     2  F          0.59405860       0.37993000       0.80583100
     3  F          0.59405860       0.12007000       0.30583100
     4  F          0.40594140       0.62007000       0.19416900
     5  F          0.33965140       0.15863000       0.54593100
     6  F          0.66034860       0.65863000       0.95406900
     7  F          0.66034860       0.84137000       0.45406900
     8  F          0.33965140       0.34137000       0.04593100
     9  O          0.06860160       0.68993000       0.92069110
    10  O          0.93139840       0.18993000       0.57930890
    11  O          0.93139840       0.31007000       0.07930890
    12  O          0.06860160       0.81007000       0.42069110
    13  N          0.05013180       0.26774000       0.93069130
    14  N          0.94986820       0.76774000       0.56930870
    15  N          0.94986820       0.73226000       0.06930870
    16  N          0.05013180       0.23226000       0.43069130
    17  H          0.02343600       0.27586800       0.97763600
    18  H          0.97656400       0.77586800       0.52236400
    19  H          0.97656400       0.72413200       0.02236400
    20  H          0.02343600       0.22413200       0.47763600
    21  H          0.05859700       0.12303700       0.90834000
    22  H          0.94140300       0.62303700       0.59166000
    23  H          0.94140300       0.87696300       0.09166000
    24  H          0.05859700       0.37696300       0.40834000
    25  N          0.12956180       0.20984000       0.78063130
    26  N          0.87043820       0.70984000       0.71936870
    27  N          0.87043820       0.79016000       0.21936870
    28  N          0.12956180       0.29016000       0.28063130
    29  N          0.16809180       0.23454000       0.71010130
    30  N          0.83190820       0.73454000       0.78989870
    31  N          0.83190820       0.76546000       0.28989870
    32  N          0.16809180       0.26546000       0.21010130
    33  N          0.18521170       0.48174000       0.69799120
    34  N          0.81478830      -0.01826000       0.80200880
    35  N          0.81478830       0.51826000       0.30200880
    36  N          0.18521170       0.01826000       0.19799120
    37  C          0.07802000       0.47625000       0.89311150
    38  C          0.92198000      -0.02375000       0.60688850
    39  C          0.92198000       0.52375000       0.10688850
    40  C          0.07802000       0.02375000       0.39311150
    41  C          0.12272000       0.44064000       0.81352150
    42  C          0.87728000       0.94064000       0.68647850
    43  C          0.87728000       0.55936000       0.18647850
    44  C          0.12272000       0.05936000       0.31352150
    45  C          0.15822000       0.61525000       0.76062140
    46  C          0.84178000       0.11525000       0.73937860
    47  C          0.84178000       0.38475000       0.23937860
    48  C          0.15822000       0.88475000       0.26062140
    49  H          0.16254300       0.78965100       0.76696200
    50  H          0.83745700       0.28965100       0.73303800
    51  H          0.83745700       0.21034900       0.23303800
    52  H          0.16254300       0.71034900       0.26696200
    53  C          0.23292000       0.56775000       0.62396150
    54  C          0.76708000       0.06775000       0.87603850
    55  C          0.76708000       0.43225000       0.37603850
    56  C          0.23292000       0.93225000       0.12396150
    57  H          0.21620900       0.74681500       0.61777300
    58  H          0.78379100       0.24681500       0.88222700
    59  H          0.78379100       0.25318500       0.38222700
    60  H          0.21620900       0.75318500       0.11777300
    61  H          0.19121700       0.47883900       0.58136700
    62  H          0.80878300      -0.02116100       0.91863300
    63  H          0.80878300       0.52116100       0.41863300
    64  H          0.19121700       0.02116100       0.08136700
    65  C          0.36792000       0.52335000       0.61964130
    66  C          0.63208000       0.02335000       0.88035870
    67  C          0.63208000       0.47665000       0.38035870
    68  C          0.36792000      -0.02335000       0.11964130
    69  C          0.45062000       0.68465000       0.65411150
    70  C          0.54938000       0.18465000       0.84588850
    71  C          0.54938000       0.31535000       0.34588850
    72  C          0.45062000       0.81535000       0.15411150
    73  C          0.57472000       0.65726000       0.65010160
    74  C          0.42528000       0.15726000       0.84989840
    75  C          0.42528000       0.34274000       0.34989840
    76  C          0.57472000       0.84274000       0.15010160
    77  H          0.62780000       0.77293900       0.67402200
    78  H          0.37220000       0.27293900       0.82597800
    79  H          0.37220000       0.22706100       0.32597800
    80  H          0.62780000       0.72706100       0.17402200
    81  C          0.61862000       0.45486000       0.60993160
    82  C          0.38138000       0.95486000       0.89006840
    83  C          0.38138000       0.54514000       0.39006840
    84  C          0.61862000       0.04514000       0.10993160
    85  H          0.70291300       0.43229800       0.60629400
    86  H          0.29708700       0.93229800       0.89370600
    87  H          0.29708700       0.56770200       0.39370600
    88  H          0.70291300       0.06770200       0.10629400
    89  C          0.54052000       0.28506000       0.57503160
    90  C          0.45948000       0.78506000       0.92496840
    91  C          0.45948000       0.71494000       0.42496840
    92  C          0.54052000       0.21494000       0.07503160
    93  H          0.57057700       0.14608400       0.54814000
    94  H          0.42942300       0.64608400       0.95186000
    95  H          0.42942300       0.85391600       0.45186000
    96  H          0.57057700       0.35391600       0.04814000
    97  C          0.41732000       0.32405000       0.58053150
    98  C          0.58268000       0.82405000       0.91946850
    99  C          0.58268000       0.67595000       0.41946850
   100  C          0.41732000       0.17595000       0.08053150
