data_ZEHZEU
_symmetry_space_group_name_H-M    'P1'
_symmetry_Int_Tables_number       1
loop_
_symmetry_equiv_pos_site_id
_symmetry_equiv_pos_as_xyz
1 x,y,z
_cell_length_a                   5.32514
_cell_length_b                   11.97411
_cell_length_c                   17.341514
_cell_angle_alpha                107.2645
_cell_angle_beta                 92.0985
_cell_angle_gamma                102.0355
loop_
_atom_site_label
_atom_site_type_symbol
_atom_site_fract_x
_atom_site_fract_y
_atom_site_fract_z
     1  F          0.41175000       0.16762000       0.00984170
     2  F          0.58825000       0.83238000       0.99015830
     3  F          0.68245000       0.14852000       0.84521160
     4  F          0.31755000       0.85148000       0.15478840
     5  O          0.07535000       0.60513000       0.79435170
     6  O          0.92465000       0.39487000       0.20564830
     7  N          0.43496000       0.38853000       0.92222000
     8  N          0.56504000       0.61147000       0.07778000
     9  N          0.17915000       0.37203000       0.92800180
    10  N          0.82085000       0.62797000       0.07199820
    11  N          0.50676000       0.62363000       0.79315190
    12  N          0.49324000       0.37637000       0.20684810
    13  H          0.52060000       0.67260000       0.76510000
    14  H          0.47940000       0.32740000       0.23490000
    15  H          0.64130000       0.60300000       0.80800000
    16  H          0.35870000       0.39700000       0.19200000
    17  N          0.49486000       0.46443000       0.88122000
    18  N          0.50514000       0.53557000       0.11878000
    19  C          0.27676000       0.49633000       0.86132000
    20  C          0.72324000       0.50367000       0.13868000
    21  C          0.27717000       0.57983000       0.81342000
    22  C          0.72283000       0.42017000       0.18658000
    23  C          0.07587000       0.43753000       0.89082000
    24  C          0.92413000       0.56247000       0.10918000
    25  H          0.90380000       0.44180000       0.88620000
    26  H          0.09620000       0.55820000       0.11380000
    27  C          0.04467000       0.16233000       0.92972000
    28  C          0.95533000       0.83767000       0.07028000
    29  C          0.05417000       0.29273000       0.97242000
    30  C          0.94583000       0.70727000       0.02758000
    31  H          0.87950000       0.30290000       0.97930000
    32  H          0.12050000       0.69710000       0.02070000
    33  H          0.14720000       0.31600000       0.02590000
    34  H          0.85280000       0.68400000       0.97410000
    35  C          0.85482000       0.09304000       0.86842000
    36  C          0.14518000       0.90696000       0.13158000
    37  C          0.21758000       0.10284000       0.95033000
    38  C          0.78242000       0.89716000       0.04967000
    39  C          0.00951000       0.91846000       0.85423000
    40  C         -0.00951000       0.08154000       0.14577000
    41  H         -0.00280000       0.83680000       0.82970000
    42  H          0.00280000       0.16320000       0.17030000
    43  C          0.82981000       0.97266000       0.83013000
    44  C          0.17019000       0.02734000       0.16987000
    45  H          0.69670000       0.92920000       0.78930000
    46  H          0.30330000       0.07080000       0.21070000
    47  C          0.20589000       0.98346000       0.91403000
    48  C          0.79411000       0.01654000       0.08597000
    49  H          0.32870000       0.94720000       0.92950000
    50  H          0.67130000       0.05280000       0.07050000
    51  N          0.93676000       0.61573000       0.62942000
    52  N          0.06324000       0.38427000       0.37058000
    53  H         -0.01750000       0.62360000       0.67920000
    54  H          0.01750000       0.37640000       0.32080000
    55  H          0.01020000       0.57480000       0.59110000
    56  H         -0.01020000       0.42520000       0.40890000
    57  N          0.81626000       0.59043000       0.46472000
    58  N          0.18374000       0.40957000       0.53528000
    59  F          0.12005000       0.84122000       0.43210170
    60  F          0.87995000       0.15878000       0.56789830
    61  F          0.78355000       0.76812000       0.26902160
    62  F          0.21645000       0.23188000       0.73097840
    63  O          0.63786000       0.72623000       0.66273170
    64  O          0.36214000       0.27377000       0.33726830
    65  N          0.51936000       0.64593000       0.40966190
    66  N          0.48064000       0.35407000       0.59033810
    67  N          0.71446000       0.59053000       0.39462000
    68  N          0.28554000       0.40947000       0.60538000
    69  C          0.68587000       0.64733000       0.52442000
    70  C          0.31413000       0.35267000       0.47558000
    71  C          0.49727000       0.68263000       0.48932000
    72  C          0.50273000       0.31737000       0.51068000
    73  H          0.37790000       0.72350000       0.51510000
    74  H          0.62210000       0.27650000       0.48490000
    75  C          0.75257000       0.66643000       0.61172000
    76  C          0.24743000       0.33357000       0.38828000
    77  C          0.44638000       0.79864000       0.34902000
    78  C          0.55362000       0.20136000       0.65098000
    79  C          0.37498000       0.66833000       0.34412000
    80  C          0.62502000       0.33167000       0.65588000
    81  H          0.19120000       0.64490000       0.34790000
    82  H          0.80880000       0.35510000       0.65210000
    83  H          0.41150000       0.61970000       0.29210000
    84  H          0.58850000       0.38030000       0.70790000
    85  C          0.31678000       0.88144000       0.39213000
    86  C          0.68322000       0.11856000       0.60787000
    87  C          0.64769000       0.84474000       0.31163000
    88  C          0.35231000       0.15526000       0.68837000
    89  C          0.37381000       0.00024000       0.39703000
    90  C          0.62619000      -0.00024000       0.60297000
    91  H          0.27890000       0.05230000       0.42630000
    92  H          0.72110000       0.94770000       0.57370000
    93  C          0.71621000       0.96275000       0.31463000
    94  C          0.28379000       0.03725000       0.68537000
    95  H          0.85410000      -0.01030000       0.28840000
    96  H          0.14590000       0.01030000       0.71160000
    97  C          0.57581000       0.04044000       0.35753000
    98  C          0.42419000       0.95956000       0.64247000
    99  H          0.61800000       0.12070000       0.35970000
   100  H          0.38200000       0.87930000       0.64030000
