data_ZEHZEU02
_symmetry_space_group_name_H-M    'P1'
_symmetry_Int_Tables_number       1
loop_
_symmetry_equiv_pos_site_id
_symmetry_equiv_pos_as_xyz
1 x,y,z
_cell_length_a                   24.600614
_cell_length_b                   22.986814
_cell_length_c                   5.36723
_cell_angle_alpha                90.0
_cell_angle_beta                 90.0
_cell_angle_gamma                90.0
loop_
_atom_site_label
_atom_site_type_symbol
_atom_site_fract_x
_atom_site_fract_y
_atom_site_fract_z
     1  C          0.82976000       0.46766000       0.39540000
     2  C          0.17024000       0.53234000       0.89540000
     3  C          0.32976000       0.03234000       0.39540000
     4  C          0.67024000       0.96766000       0.89540000
     5  C          0.86066000       0.48767000       0.58930000
     6  C          0.13934000       0.51233000       0.08930000
     7  C          0.36066000       0.01233000       0.58930000
     8  C          0.63934000       0.98767000       0.08930000
     9  H          0.85175900       0.48825100       0.76087300
    10  H          0.14824100       0.51174900       0.26087300
    11  H          0.35175900       0.01174900       0.76087300
    12  H          0.64824100       0.98825100       0.26087300
    13  C          0.95296000       0.53657000       0.58830000
    14  C          0.04704000       0.46343000       0.08830000
    15  C          0.45296000       0.96343000       0.58830000
    16  C          0.54704000       0.03657000       0.08830000
    17  H          0.98701500       0.52102400       0.51630900
    18  H          0.01298500       0.47897600       0.01630900
    19  H          0.48701500       0.97897600       0.51630900
    20  H          0.51298500       0.02102400       0.01630900
    21  H          0.95339700       0.52849500       0.76953400
    22  H          0.04660300       0.47150500       0.26953400
    23  H          0.45339700       0.97150500       0.76953400
    24  H          0.54660300       0.02849500       0.26953400
    25  C          0.95086000       0.59977000       0.54830000
    26  C          0.04914000       0.40023000       0.04830000
    27  C          0.45086000       0.90023000       0.54830000
    28  C          0.54914000       0.09977000       0.04830000
    29  C          0.92367000       0.63829000       0.69140000
    30  C          0.07633000       0.36171000       0.19140000
    31  C          0.42367000       0.86171000       0.69140000
    32  C          0.57633000       0.13829000       0.19140000
    33  C          0.92058000       0.69619000       0.65540000
    34  C          0.07942000       0.30381000       0.15540000
    35  C          0.42058000       0.80381000       0.65540000
    36  C          0.57942000       0.19619000       0.15540000
    37  H          0.89991800       0.71984400       0.76545600
    38  H          0.10008200       0.28015600       0.26545600
    39  H          0.39991800       0.78015600       0.76545600
    40  H          0.60008200       0.21984400       0.26545600
    41  C          0.94808000       0.72028000       0.45550000
    42  C          0.05192000       0.27972000       0.95550000
    43  C          0.44808000       0.77972000       0.45550000
    44  C          0.55192000       0.22028000       0.95550000
    45  H          0.94650900       0.76093800       0.42676600
    46  H          0.05349100       0.23906200       0.92676600
    47  H          0.44650900       0.73906200       0.42676600
    48  H          0.55349100       0.26093800       0.92676600
    49  C          0.97748000       0.68508000       0.29740000
    50  C          0.02252000       0.31492000       0.79740000
    51  C          0.47748000       0.81492000       0.29740000
    52  C          0.52252000       0.18508000       0.79740000
    53  H         -0.00299000       0.70114200       0.16061100
    54  H          0.00299000       0.29885800       0.66061100
    55  H          0.49701000       0.79885800       0.16061100
    56  H          0.50299000       0.20114200       0.66061100
    57  C          0.97786000       0.62788000       0.33940000
    58  C          0.02214000       0.37212000       0.83940000
    59  C          0.47786000       0.87212000       0.33940000
    60  C          0.52214000       0.12788000       0.83940000
    61  C          0.77346000       0.44107000       0.41840000
    62  C          0.22654000       0.55893000       0.91840000
    63  C          0.27346000       0.05893000       0.41840000
    64  C          0.72654000       0.94107000       0.91840000
    65  F          0.89564000       0.61354000       0.88820000
    66  F          0.10436000       0.38646000       0.38820000
    67  F          0.39564000       0.88646000       0.88820000
    68  F          0.60436000       0.11354000       0.38820000
    69  F          0.00824000       0.59155000       0.19420000
    70  F          0.99176000       0.40845000       0.69420000
    71  F          0.50824000       0.90845000       0.19420000
    72  F          0.49176000       0.09155000       0.69420000
    73  N          0.74995000       0.42685000       0.19930000
    74  N          0.25005000       0.57315000       0.69930000
    75  N          0.24995000       0.07315000       0.19930000
    76  N          0.75005000       0.92685000       0.69930000
    77  H          0.71748500       0.41072200       0.19643500
    78  H          0.28251500       0.58927800       0.69643500
    79  H          0.21748500       0.08927800       0.19643500
    80  H          0.78251500       0.91072200       0.69643500
    81  H          0.76708900       0.43373400       0.05772700
    82  H          0.23291100       0.56626600       0.55772700
    83  H          0.26708900       0.06626600       0.05772700
    84  H          0.73291100       0.93373400       0.55772700
    85  N          0.85726000       0.47366000       0.18430000
    86  N          0.14274000       0.52634000       0.68430000
    87  N          0.35726000       0.02634000       0.18430000
    88  N          0.64274000       0.97366000       0.68430000
    89  N          0.90415000       0.49817000       0.22630000
    90  N          0.09585000       0.50183000       0.72630000
    91  N          0.40415000       0.00183000       0.22630000
    92  N          0.59585000      -0.00183000       0.72630000
    93  N          0.90715000       0.50655000       0.47730000
    94  N          0.09285000       0.49345000      -0.02270000
    95  N          0.40715000       0.99345000       0.47730000
    96  N          0.59285000       0.00655000      -0.02270000
    97  O          0.75384000       0.43375000       0.62420000
    98  O          0.24616000       0.56625000       0.12420000
    99  O          0.25384000       0.06625000       0.62420000
   100  O          0.74616000       0.93375000       0.12420000
   101  C          0.61337000       0.39526000       0.90560000
   102  C          0.38663000       0.60474000       0.40560000
   103  C          0.11337000       0.10474000       0.90560000
   104  C          0.88663000       0.89526000       0.40560000
   105  C          0.55566000       0.37786000       0.90070000
   106  C          0.44434000       0.62214000       0.40070000
   107  C          0.05566000       0.12214000       0.90070000
   108  C          0.94434000       0.87786000       0.40070000
   109  C          0.51917000       0.37017000       0.08540000
   110  C          0.48083000       0.62983000       0.58540000
   111  C          0.01917000       0.12983000       0.08540000
   112  C          0.98083000       0.87017000       0.58540000
   113  H          0.52507000       0.37541200       0.25887900
   114  H          0.47493000       0.62458800       0.75887900
   115  H          0.02507000       0.12458800       0.25887900
   116  H          0.97493000       0.87541200       0.75887900
   117  C          0.41976000       0.34006000       0.08330000
   118  C          0.58024000       0.65994000       0.58330000
   119  C          0.91976000       0.15994000       0.08330000
   120  C          0.08024000       0.84006000       0.58330000
   121  H          0.39256600       0.36857200       0.02401800
   122  H          0.60743400       0.63142800       0.52401800
   123  H          0.89256600       0.13142800       0.02401800
   124  H          0.10743400       0.86857200       0.52401800
   125  H          0.42241000       0.34376300       0.26682000
   126  H          0.57759000       0.65623700       0.76682000
   127  H          0.92241000       0.15623700       0.26682000
   128  H          0.07759000       0.84376300       0.76682000
   129  C          0.40086000       0.27987000       0.01930000
   130  C          0.59914000       0.72013000       0.51930000
   131  C          0.90086000       0.22013000       0.01930000
   132  C          0.09914000       0.77987000       0.51930000
   133  C          0.41526000       0.23218000       0.16440000
   134  C          0.58474000       0.76782000       0.66440000
   135  C          0.91526000       0.26782000       0.16440000
   136  C          0.08474000       0.73218000       0.66440000
   137  C          0.39957000       0.17758000       0.12740000
   138  C          0.60043000       0.82242000       0.62740000
   139  C          0.89957000       0.32242000       0.12740000
   140  C          0.10043000       0.67758000       0.62740000
   141  H          0.41090200       0.14707900       0.23425900
   142  H          0.58909800       0.85292100       0.73425900
   143  H          0.91090200       0.35292100       0.23425900
   144  H          0.08909800       0.64707900       0.73425900
   145  C          0.36587000       0.16669000       0.92350000
   146  C          0.63413000       0.83331000       0.42350000
   147  C          0.86587000       0.33331000       0.92350000
   148  C          0.13413000       0.66669000       0.42350000
   149  H          0.35205400       0.12856000       0.89675500
   150  H          0.64794600       0.87144000       0.39675500
   151  H          0.85205400       0.37144000       0.89675500
   152  H          0.14794600       0.62856000       0.39675500
   153  C          0.35268000       0.21009000       0.76570000
   154  C          0.64732000       0.78991000       0.26570000
   155  C          0.85268000       0.28991000       0.76570000
   156  C          0.14732000       0.71009000       0.26570000
   157  H          0.33134400       0.20169500       0.62262500
   158  H          0.66865600       0.79830500       0.12262500
   159  H          0.83134400       0.29830500       0.62262500
   160  H          0.16865600       0.70169500       0.12262500
   161  C          0.36967000       0.26608000       0.80870000
   162  C          0.63033000       0.73392000       0.30870000
   163  C          0.86967000       0.23392000       0.80870000
   164  C          0.13033000       0.76608000       0.30870000
   165  F          0.44774000       0.24394000       0.36620000
   166  F          0.55226000       0.75606000       0.86620000
   167  F          0.94774000       0.25606000       0.36620000
   168  F          0.05226000       0.74394000       0.86620000
   169  F          0.35474000       0.30994000       0.66480000
   170  F          0.64526000       0.69006000       0.16480000
   171  F          0.85474000       0.19006000       0.66480000
   172  F          0.14526000       0.80994000       0.16480000
   173  N          0.63886000       0.40476000       0.69870000
   174  N          0.36114000       0.59524000       0.19870000
   175  N          0.13886000       0.09524000       0.69870000
   176  N          0.86114000       0.90476000       0.19870000
   177  H          0.67378700       0.41245300       0.70090000
   178  H          0.32621300       0.58754700       0.20090000
   179  H          0.17378700       0.08754700       0.70090000
   180  H          0.82621300       0.91245300       0.20090000
   181  H          0.62106700       0.40334200       0.55690200
   182  H          0.37893300       0.59665800       0.05690200
   183  H          0.12106700       0.09665800       0.55690200
   184  H          0.87893300       0.90334200       0.05690200
   185  N          0.52976000       0.36685000       0.68170000
   186  N          0.47024000       0.63315000       0.18170000
   187  N          0.02976000       0.13315000       0.68170000
   188  N          0.97024000       0.86685000       0.18170000
   189  N          0.48136000       0.35126000       0.72170000
   190  N          0.51864000       0.64874000       0.22170000
   191  N          0.98136000       0.14874000       0.72170000
   192  N          0.01864000       0.85126000       0.22170000
   193  N          0.47195000       0.35325000       0.97270000
   194  N          0.52805000       0.64675000       0.47270000
   195  N          0.97195000       0.14675000       0.97270000
   196  N          0.02805000       0.85325000       0.47270000
   197  O          0.63604000       0.39645000       0.11820000
   198  O          0.36396000       0.60355000       0.61820000
   199  O          0.13604000       0.10355000       0.11820000
   200  O          0.86396000       0.89645000       0.61820000
   201  C          0.57946000       0.52187000       0.10240000
   202  C          0.42054000       0.47813000       0.60240000
   203  C          0.07946000       0.97813000       0.10240000
   204  C          0.92054000       0.02187000       0.60240000
   205  C          0.63846000       0.54056000       0.12040000
   206  C          0.36154000       0.45944000       0.62040000
   207  C          0.13846000       0.95944000       0.12040000
   208  C          0.86154000       0.04056000       0.62040000
   209  C          0.67247000       0.55567000       0.93940000
   210  C          0.32753000       0.44433000       0.43940000
   211  C          0.17247000       0.94433000       0.93940000
   212  C          0.82753000       0.05567000       0.43940000
   213  H          0.66426600       0.55660500       0.76613000
   214  H          0.33573400       0.44339500       0.26613000
   215  H          0.16426600       0.94339500       0.76613000
   216  H          0.83573400       0.05660500       0.26613000
   217  C          0.76786000       0.59137000       0.93130000
   218  C          0.23214000       0.40863000       0.43130000
   219  C          0.26786000       0.90863000       0.93130000
   220  C          0.73214000       0.09137000       0.43130000
   221  H          0.76949900       0.58021200       0.75313400
   222  H          0.23050100       0.41978800       0.25313400
   223  H          0.26949900       0.91978800       0.75313400
   224  H          0.73050100       0.08021200       0.25313400
   225  H          0.79890900       0.57274400       0.01656900
   226  H          0.20109100       0.42725600       0.51656900
   227  H          0.29890900       0.92725600       0.01656900
   228  H          0.70109100       0.07274400       0.51656900
   229  C          0.77376000       0.65488000       0.95030000
   230  C          0.22624000       0.34512000       0.45030000
   231  C          0.27376000       0.84512000       0.95030000
   232  C          0.72624000       0.15488000       0.45030000
   233  C          0.75117000       0.69517000       0.78530000
   234  C          0.24883000       0.30483000       0.28530000
   235  C          0.25117000       0.80483000       0.78530000
   236  C          0.74883000       0.19517000       0.28530000
   237  C          0.75586000       0.75379000       0.79440000
   238  C          0.24414000       0.24621000       0.29440000
   239  C          0.25586000       0.74621000       0.79440000
   240  C          0.74414000       0.25379000       0.29440000
   241  H          0.73838400       0.77807200       0.67497300
   242  H          0.26161600       0.22192800       0.17497300
   243  H          0.23838400       0.72192800       0.67497300
   244  H          0.76161600       0.27807200       0.17497300
   245  C          0.78807000       0.77668000      -0.01160000
   246  C          0.21193000       0.22332000       0.48840000
   247  C          0.28807000       0.72332000      -0.01160000
   248  C          0.71193000       0.27668000       0.48840000
   249  H          0.79407800       0.81735500      -0.00245900
   250  H          0.20592200       0.18264500       0.49754100
   251  H          0.29407800       0.68264500      -0.00245900
   252  H          0.70592200       0.31735500       0.49754100
   253  C          0.81106000       0.74018000       0.16740000
   254  C          0.18894000       0.25982000       0.66740000
   255  C          0.31106000       0.75982000       0.16740000
   256  C          0.68894000       0.24018000       0.66740000
   257  H          0.83100300       0.75587700       0.30258900
   258  H          0.16899700       0.24412300       0.80258900
   259  H          0.33100300       0.74412300       0.30258900
   260  H          0.66899700       0.25587700       0.80258900
   261  C          0.80466000       0.68238000       0.14530000
   262  C          0.19534000       0.31762000       0.64530000
   263  C          0.30466000       0.81762000       0.14530000
   264  C          0.69534000       0.18238000       0.64530000
   265  F          0.72124000       0.67134000       0.59851800
   266  F          0.27876000       0.32866000       0.09851800
   267  F          0.22124000       0.82866000       0.59851800
   268  F          0.77876000       0.17134000       0.09851800
   269  F          0.82663000       0.64554000       0.31641800
   270  F          0.17337000       0.35446000       0.81641800
   271  F          0.32663000       0.85446000       0.31641800
   272  F          0.67337000       0.14554000       0.81641800
   273  N          0.55565000       0.51035000       0.31930000
   274  N          0.44435000       0.48965000       0.81930000
   275  N          0.05565000       0.98965000       0.31930000
   276  N          0.94435000       0.01035000       0.81930000
   277  H          0.52089000       0.50128000       0.32320100
   278  H          0.47911000       0.49872000       0.82320100
   279  H          0.02089000      -0.00128000       0.32320100
   280  H          0.97911000       0.00128000       0.82320100
   281  H          0.57461600       0.51176100       0.45733600
   282  H          0.42538400       0.48823900       0.95733600
   283  H          0.07461600       0.98823900       0.45733600
   284  H          0.92538400       0.01176100       0.95733600
   285  N          0.66375000       0.54595000       0.33620000
   286  N          0.33625000       0.45405000       0.83620000
   287  N          0.16375000       0.95405000       0.33620000
   288  N          0.83625000       0.04595000       0.83620000
   289  N          0.71595000       0.56485000       0.28530000
   290  N          0.28405000       0.43515000       0.78530000
   291  N          0.21595000       0.93515000       0.28530000
   292  N          0.78405000       0.06485000       0.78530000
   293  N          0.71765000       0.56846000       0.03730000
   294  N          0.28235000       0.43154000       0.53730000
   295  N          0.21765000       0.93154000       0.03730000
   296  N          0.78235000       0.06846000       0.53730000
   297  O          0.55704000       0.52125000       0.89520000
   298  O          0.44296000       0.47875000       0.39520000
   299  O          0.05704000       0.97875000       0.89520000
   300  O          0.94296000       0.02125000       0.39520000
