data_ZEMJOQ
_symmetry_space_group_name_H-M    'P1'
_symmetry_Int_Tables_number       1
loop_
_symmetry_equiv_pos_site_id
_symmetry_equiv_pos_as_xyz
1 x,y,z
_cell_length_a                   8.97401
_cell_length_b                   14.38301
_cell_length_c                   14.80201
_cell_angle_alpha                90.0
_cell_angle_beta                 90.0
_cell_angle_gamma                90.0
loop_
_atom_site_label
_atom_site_type_symbol
_atom_site_fract_x
_atom_site_fract_y
_atom_site_fract_z
     1  O          0.73193000       0.11134120       0.72666130
     2  O          0.76807000       0.88865880       0.22666130
     3  O          0.23193000       0.38865880       0.27333870
     4  O          0.26807000       0.61134120       0.77333870
     5  N          0.64703000       0.24701140       0.86825150
     6  N          0.85297000       0.75298860       0.36825150
     7  N          0.14703000       0.25298860       0.13174850
     8  N          0.35297000       0.74701140       0.63174850
     9  C          0.67953000       0.85396150       0.73830150
    10  C          0.82047000       0.14603850       0.23830150
    11  C          0.17953000       0.64603850       0.26169850
    12  C          0.32047000       0.35396150       0.76169850
    13  C          0.66243000       0.37553150       0.97352000
    14  C          0.83757000       0.62446850       0.47352000
    15  C          0.16243000       0.12446850       0.02648000
    16  C          0.33757000       0.87553150       0.52648000
    17  C          0.70893000       0.94971150       0.69719150
    18  C          0.79107000       0.05028850       0.19719150
    19  C          0.20893000       0.55028850       0.30280850
    20  C          0.29107000       0.44971150       0.80280850
    21  C          0.68943000       0.33352000       0.89052000
    22  C          0.81057000       0.66648000       0.39052000
    23  C          0.18943000       0.16648000       0.10948000
    24  C          0.31057000       0.83352000       0.60948000
    25  C          0.70333000       0.02392150       0.76852000
    26  C          0.79667000       0.97607850       0.26852000
    27  C          0.20333000       0.47607850       0.23148000
    28  C          0.29667000       0.52392150       0.73148000
    29  C          0.81663000       0.00283150       0.84212000
    30  C          0.68337000      -0.00283150       0.34212000
    31  C          0.31663000       0.49716850       0.15788000
    32  C          0.18337000       0.50283150       0.65788000
    33  C          0.57184000       0.19892000       0.93052000
    34  C          0.92816000       0.80108000       0.43052000
    35  C          0.07184000       0.30108000       0.06948000
    36  C          0.42816000       0.69892000       0.56948000
    37  C          0.79792000       0.90679140       0.88230140
    38  C          0.70208000       0.09320860       0.38230140
    39  C          0.29792000       0.59320860       0.11769860
    40  C          0.20208000       0.40679140       0.61769860
    41  C          0.53804000       0.23432000       0.01422000
    42  C          0.96196000       0.76568000       0.51422000
    43  C          0.03804000       0.26568000       0.98578000
    44  C          0.46196000       0.73432000       0.48578000
    45  C          0.79273000       0.89429140       0.97123140
    46  C          0.70727000       0.10570860       0.47123140
    47  C          0.29273000       0.60570860       0.02876860
    48  C          0.20727000       0.39429140       0.52876860
    49  C          0.58183000       0.32332000       0.03612000
    50  C          0.91817000       0.67668000       0.53612000
    51  C          0.08183000       0.17668000       0.96388000
    52  C          0.41817000       0.82332000       0.46388000
    53  C          0.78103000       0.80237140       0.01799130
    54  C          0.71897000       0.19762860       0.51799130
    55  C          0.28103000       0.69762860       0.98200870
    56  C          0.21897000       0.30237140       0.48200870
    57  C          0.80512000       0.72065140       0.95387130
    58  C          0.69488000       0.27934860       0.45387130
    59  C          0.30512000       0.77934860       0.04612870
    60  C          0.19488000       0.22065140       0.54612870
    61  C          0.72332000       0.73986130       0.86414130
    62  C          0.77668000       0.26013870       0.36414130
    63  C          0.22332000       0.76013870       0.13585870
    64  C          0.27668000       0.23986130       0.63585870
    65  C          0.94463000       0.80752000       0.77672000
    66  C          0.55537000       0.19248000       0.27672000
    67  C          0.44463000       0.69248000       0.22328000
    68  C          0.05537000       0.30752000       0.72328000
    69  C          0.78772000       0.82637130       0.81553130
    70  C          0.71228000       0.17362870       0.31553130
    71  C          0.28772000       0.67362870       0.18446870
    72  C          0.21228000       0.32637130       0.68446870
    73  C          0.71273000       0.65436150       0.80211140
    74  C          0.78727000       0.34563850       0.30211140
    75  C          0.21273000       0.84563850       0.19788860
    76  C          0.28727000       0.15436150       0.69788860
    77  C          0.66203000       0.56498140       0.84972000
    78  C          0.83797000       0.43501860       0.34972000
    79  C          0.16203000       0.93501860       0.15028000
    80  C          0.33797000       0.06498140       0.65028000
    81  C          0.76202000       0.54574130       0.93128130
    82  C          0.73798000       0.45425870       0.43128130
    83  C          0.26202000       0.95425870       0.06871870
    84  C          0.23798000       0.04574130       0.56871870
    85  C          0.92483000       0.52812000       0.90292000
    86  C          0.57517000       0.47188000       0.40292000
    87  C          0.42483000       0.97188000       0.09708000
    88  C          0.07517000       0.02812000       0.59708000
    89  C          0.74543000       0.63127130      -0.00583870
    90  C          0.75457000       0.36872870       0.49416130
    91  C          0.24543000       0.86872870       0.00583870
    92  C          0.25457000       0.13127130       0.50583870
    93  C          0.80263000       0.59572000       0.08552150
    94  C          0.69737000       0.40428000       0.58552150
    95  C          0.30263000       0.90428000       0.91447850
    96  C          0.19737000       0.09572000       0.41447850
    97  C          0.74803000       0.49662000       0.08132000
    98  C          0.75197000       0.50338000       0.58132000
    99  C          0.24803000       0.00338000       0.91868000
   100  C          0.25197000      -0.00338000       0.41868000
   101  C          0.71763000       0.46878140      -0.00228860
   102  C          0.78237000       0.53121860       0.49771140
   103  C          0.21763000       0.03121860       0.00228860
   104  C          0.28237000       0.96878140       0.50228860
   105  H          0.57453000       0.85661900       0.76741800
   106  H          0.92547000       0.14338100       0.26741800
   107  H          0.07453000       0.64338100       0.23258200
   108  H          0.42547000       0.35661900       0.73258200
   109  H          0.68782800       0.80761800       0.68891700
   110  H          0.81217200       0.19238200       0.18891700
   111  H          0.18782800       0.69238200       0.31108300
   112  H          0.31217200       0.30761800       0.81108300
   113  H          0.63152900       0.96011800       0.64881700
   114  H          0.86847100       0.03988200       0.14881700
   115  H          0.13152900       0.53988200       0.35118300
   116  H          0.36847100       0.46011800       0.85118300
   117  H          0.81713400       0.94702000       0.66702000
   118  H          0.68286600       0.05298000       0.16702000
   119  H          0.31713400       0.55298000       0.33298000
   120  H          0.18286600       0.44702000       0.83298000
   121  H          0.73173600       0.36432000       0.84302200
   122  H          0.76826400       0.63568000       0.34302200
   123  H          0.23173600       0.13568000       0.15697800
   124  H          0.26826400       0.86432000       0.65697800
   125  H          0.71014800       0.15892800       0.77042800
   126  H          0.78985200       0.84107200       0.27042800
   127  H          0.21014800       0.34107200       0.22957200
   128  H          0.28985200       0.65892800       0.72957200
   129  H          0.60133000       0.02321600       0.79391600
   130  H          0.89867000       0.97678400       0.29391600
   131  H          0.10133000       0.47678400       0.20608400
   132  H          0.39867000       0.52321600       0.70608400
   133  H          0.93113900       0.46612300       0.86272100
   134  H          0.56886100       0.53387700       0.36272100
   135  H          0.43113900       0.03387700       0.13727900
   136  H          0.06886100       0.96612300       0.63727900
   137  H          0.92133300       0.00851800       0.81471900
   138  H          0.57866700      -0.00851800       0.31471900
   139  H          0.42133300       0.49148200       0.18528100
   140  H          0.07866700       0.50851800       0.68528100
   141  H          0.54373600       0.13402500       0.91092300
   142  H          0.95626400       0.86597500       0.41092300
   143  H          0.04373600       0.36597500       0.08907700
   144  H          0.45626400       0.63402500       0.58907700
   145  H          0.47534200       0.19712300       0.05812500
   146  H          0.02465800       0.80287700       0.55812500
   147  H          0.97534200       0.30287700       0.94187500
   148  H          0.52465800       0.69712300       0.44187500
   149  H          0.79373100       0.95091900       0.00641700
   150  H          0.70626900       0.04908100       0.50641700
   151  H          0.29373100       0.54908100      -0.00641700
   152  H          0.20626900       0.45091900       0.49358300
   153  H          0.55043300       0.35252100       0.09762000
   154  H          0.94956700       0.64747900       0.59762000
   155  H          0.05043300       0.14747900       0.90238000
   156  H          0.44956700       0.85252100       0.40238000
   157  H          0.67883800       0.79782000       0.04432100
   158  H          0.82116200       0.20218000       0.54432100
   159  H          0.17883800       0.70218000       0.95567900
   160  H          0.32116200       0.29782000       0.45567900
   161  H          0.85573300       0.79441900       0.06992100
   162  H          0.64426700       0.20558100       0.56992100
   163  H          0.35573300       0.70558100       0.93007900
   164  H          0.14426700       0.29441900       0.43007900
   165  H          0.91733100       0.71051800       0.94261700
   166  H          0.58266900       0.28948200       0.44261700
   167  H          0.41733100       0.78948200       0.05738300
   168  H          0.08266900       0.21051800       0.55738300
   169  H          0.61952800       0.75681600       0.88261500
   170  H          0.88047200       0.24318400       0.38261500
   171  H          0.11952800       0.74318400       0.11738500
   172  H          0.38047200       0.25681600       0.61738500
   173  H          0.93763500       0.76342100       0.72042100
   174  H          0.56236500       0.23657900       0.22042100
   175  H          0.43763500       0.73657900       0.27957900
   176  H          0.06236500       0.26342100       0.77957900
   177  H          0.01474100       0.77722500       0.81812500
   178  H          0.48525900       0.22277500       0.31812500
   179  H          0.51474100       0.72277500       0.18187500
   180  H         -0.01474100       0.27722500       0.68187500
   181  H         -0.00256300       0.85982200       0.74932100
   182  H          0.50256300       0.14017800       0.24932100
   183  H          0.49743700       0.64017800       0.25067900
   184  H          0.00256300       0.35982200       0.75067900
   185  H          0.64093600       0.66642300       0.75012100
   186  H          0.85906400       0.33357700       0.25012100
   187  H          0.14093600       0.83357700       0.24987900
   188  H          0.35906400       0.16642300       0.74987900
   189  H          0.81953600       0.64122100       0.77192000
   190  H          0.68046400       0.35877900       0.27192000
   191  H          0.31953600       0.85877900       0.22808000
   192  H          0.18046400       0.14122100       0.72808000
   193  H          0.67552900       0.51231800       0.80421800
   194  H          0.82447100       0.48768200       0.30421800
   195  H          0.17552900       0.98768200       0.19578200
   196  H          0.32447100       0.01231800       0.69578200
   197  H          0.55543900       0.57042100       0.86771900
   198  H          0.94456100       0.42957900       0.36771900
   199  H          0.05543900       0.92957900       0.13228100
   200  H          0.44456100       0.07042100       0.63228100
   201  H          0.97283200       0.57902100       0.86401900
   202  H          0.52716800       0.42097900       0.36401900
   203  H          0.47283200       0.92097900       0.13598100
   204  H          0.02716800       0.07902100       0.63598100
   205  H         -0.00506300       0.51702300       0.95952300
   206  H          0.50506300       0.48297700       0.45952300
   207  H          0.49493700       0.98297700       0.04047700
   208  H          0.00506300       0.01702300       0.54047700
   209  H          0.80443100       0.05301900       0.88811700
   210  H          0.69556900       0.94698100       0.38811700
   211  H          0.30443100       0.44698100       0.11188300
   212  H          0.19556900       0.55301900       0.61188300
   213  H          0.63732600       0.64311500       0.00251400
   214  H          0.86267400       0.35688500       0.50251400
   215  H          0.13732600       0.85688500      -0.00251400
   216  H          0.36267400       0.14311500       0.49748600
   217  H          0.76322900       0.62911700       0.14151700
   218  H          0.73677100       0.37088300       0.64151700
   219  H          0.26322900       0.87088300       0.85848300
   220  H          0.23677100       0.12911700       0.35848300
   221  H          0.91563700       0.59302100       0.08982000
   222  H          0.58436300       0.40697900       0.58982000
   223  H          0.41563700       0.90697900       0.91018000
   224  H          0.08436300       0.09302100       0.41018000
   225  H          0.73303600       0.45942000       0.13842000
   226  H          0.76696400       0.54058000       0.63842000
   227  H          0.23303600       0.04058000       0.86158000
   228  H          0.26696400       0.95942000       0.36158000
