data_ZEMJOQ02
_symmetry_space_group_name_H-M    'P1'
_symmetry_Int_Tables_number       1
loop_
_symmetry_equiv_pos_site_id
_symmetry_equiv_pos_as_xyz
1 x,y,z
_cell_length_a                   5.8255311
_cell_length_b                   12.20424
_cell_length_c                   13.64264
_cell_angle_alpha                90.0
_cell_angle_beta                 92.8082
_cell_angle_gamma                90.0
loop_
_atom_site_label
_atom_site_type_symbol
_atom_site_fract_x
_atom_site_fract_y
_atom_site_fract_z
     1  C          0.62614000       0.47562000       0.42545170
     2  C          0.37386000       0.97562000       0.57454830
     3  H          0.71400000       0.54220000       0.43730000
     4  H          0.28600000       0.04220000       0.56270000
     5  H          0.72770000       0.41410000       0.43980000
     6  H          0.27230000       0.91410000       0.56020000
     7  C          0.54644000       0.47142000       0.31677180
     8  C          0.45356000       0.97142000       0.68322820
     9  H          0.45240000       0.53510000       0.30050000
    10  H          0.54760000       0.03510000       0.69950000
    11  H          0.67910000       0.47300000       0.27650000
    12  H          0.32090000       0.97300000       0.72350000
    13  C          0.40854000       0.36772000       0.29516180
    14  C          0.59146000       0.86772000       0.70483820
    15  H          0.50680000       0.30490000       0.31290000
    16  H          0.49320000       0.80490000       0.68710000
    17  C          0.20054000       0.36472000       0.36016180
    18  C          0.79946000       0.86472000       0.63983820
    19  H          0.09660000       0.42410000       0.34140000
    20  H          0.90340000       0.92410000       0.65860000
    21  H          0.11860000       0.29620000       0.34940000
    22  H          0.88140000       0.79620000       0.65060000
    23  C          0.27114000       0.37542000       0.46801180
    24  C          0.72886000       0.87542000       0.53198820
    25  C          0.19674000       0.30302000       0.53309190
    26  C          0.80326000       0.80302000       0.46690810
    27  H          0.10430000       0.24590000       0.50920000
    28  H          0.89570000       0.74590000       0.49080000
    29  C          0.25174000       0.30742000       0.64192190
    30  C          0.74826000       0.80742000       0.35807810
    31  H          0.36280000       0.25070000       0.65970000
    32  H          0.63720000       0.75070000       0.34030000
    33  H          0.11320000       0.29250000       0.67630000
    34  H          0.88680000       0.79250000       0.32370000
    35  C          0.34854000       0.41872000       0.67463180
    36  C          0.65146000       0.91872000       0.32536820
    37  H          0.22350000       0.47240000       0.67380000
    38  H          0.77650000       0.97240000       0.32620000
    39  C          0.53114000       0.45622000       0.60303170
    40  C          0.46886000       0.95622000       0.39696830
    41  H          0.64190000       0.39600000       0.59980000
    42  H          0.35810000       0.89600000       0.40020000
    43  C          0.42724000       0.47242000       0.49672170
    44  C          0.57276000       0.97242000       0.50327830
    45  C          0.66844000       0.55702000       0.64063170
    46  C          0.33156000       0.05702000       0.35936830
    47  H          0.79960000       0.56620000       0.60030000
    48  H          0.20040000       0.06620000       0.39970000
    49  H          0.57190000       0.62130000       0.63140000
    50  H          0.42810000       0.12130000       0.36860000
    51  C          0.75594000       0.55252000       0.74896170
    52  C          0.24406000       0.05252000       0.25103830
    53  H          0.87670000       0.49810000       0.75690000
    54  H          0.12330000      -0.00190000       0.24310000
    55  H          0.82000000       0.62310000       0.76830000
    56  H          0.18000000       0.12310000       0.23170000
    57  C          0.55984000       0.52352000       0.81470170
    58  C          0.44016000       0.02352000       0.18529830
    59  C          0.46114000       0.41292000       0.77729170
    60  C          0.53886000       0.91292000       0.22270830
    61  H          0.59430000       0.36460000       0.77190000
    62  H          0.40570000       0.86460000       0.22810000
    63  C          0.33084000       0.36823000       0.86387180
    64  C          0.66916000       0.86823000       0.13612820
    65  H          0.17590000       0.39730000       0.86430000
    66  H          0.82410000       0.89730000       0.13570000
    67  H          0.32490000       0.28880000       0.86350000
    68  H          0.67510000       0.78880000       0.13650000
    69  C          0.48094000       0.41133000       0.94931180
    70  C          0.51906000       0.91133000       0.05068820
    71  H          0.47820000       0.38410000       0.01290000
    72  H          0.52180000       0.88410000       0.98710000
    73  C          0.61824000       0.49332000       0.92258180
    74  C          0.38176000      -0.00668000       0.07741820
    75  C          0.28664000       0.57912000       0.48675190
    76  C          0.71336000       0.07912000       0.51324810
    77  H          0.19590000       0.57810000       0.42610000
    78  H          0.80410000       0.07810000       0.57390000
    79  H          0.38920000       0.64070000       0.48730000
    80  H          0.61080000       0.14070000       0.51270000
    81  H          0.18730000       0.58500000       0.54060000
    82  H          0.81270000       0.08500000       0.45940000
    83  C          0.37584000       0.61462000       0.81430180
    84  C          0.62416000       0.11462000       0.18569820
    85  H          0.25290000       0.59260000       0.85440000
    86  H          0.74710000       0.09260000       0.14560000
    87  H          0.31650000       0.62690000       0.74830000
    88  H          0.68350000       0.12690000       0.25170000
    89  H          0.44360000       0.68100000       0.84000000
    90  H          0.55640000       0.18100000       0.16000000
    91  C          0.79164000       0.54942000       0.98680180
    92  C          0.20836000       0.04942000       0.01319820
    93  C          0.87124000       0.65512000       0.97021180
    94  C          0.12876000       0.15512000       0.02978820
    95  H          0.80770000       0.69660000       0.91850000
    96  H          0.19230000       0.19660000       0.08150000
    97  C          0.04714000       0.69823000       0.03182000
    98  C          0.95286000       0.19823000       0.96818000
    99  H          0.10150000       0.76870000       0.02180000
   100  H          0.89850000       0.26870000       0.97820000
   101  C          0.13955000       0.63493000       0.10802000
   102  C          0.86045000       0.13493000       0.89198000
   103  H          0.25920000       0.66360000       0.14770000
   104  H          0.74080000       0.16360000       0.85230000
   105  C          0.89365000       0.49423000       0.06763190
   106  C          0.10635000      -0.00577000       0.93236810
   107  H          0.83940000       0.42450000       0.08120000
   108  H          0.16060000       0.92450000       0.91880000
   109  H          0.26270000       0.41540000       0.18230000
   110  H          0.73730000       0.91540000       0.81770000
   111  N          0.06354000       0.53442000       0.12685170
   112  N          0.93646000       0.03442000       0.87314830
   113  O          0.33883000       0.35757190       0.19392130
   114  O          0.66117000       0.85757190       0.80607870
