data_ZEMJOQ01
_symmetry_space_group_name_H-M    'P1'
_symmetry_Int_Tables_number       1
loop_
_symmetry_equiv_pos_site_id
_symmetry_equiv_pos_as_xyz
1 x,y,z
_cell_length_a                   12.0311314
_cell_length_b                   6.241024
_cell_length_c                   13.5706612
_cell_angle_alpha                90.0
_cell_angle_beta                 112.995212
_cell_angle_gamma                90.0
loop_
_atom_site_label
_atom_site_type_symbol
_atom_site_fract_x
_atom_site_fract_y
_atom_site_fract_z
     1  O          0.60197800       0.78121140       0.95911400
     2  O          0.39802200       0.28121140       0.04088600
     3  N          0.75265900       0.11587160       0.93526800
     4  N          0.24734100       0.61587160       0.06473200
     5  C          0.70688110       0.48387170       0.22239800
     6  C          0.29311890      -0.01612830       0.77760200
     7  H          0.76630000       0.37120000       0.25130000
     8  H          0.23370000       0.87120000       0.74870000
     9  H          0.62890000       0.42570000       0.21390000
    10  H          0.37110000       0.92570000       0.78610000
    11  H          0.64351500       0.89130000       0.96368700
    12  H          0.35648500       0.39130000       0.03631300
    13  C          0.70272110       0.54736180       0.11177900
    14  C          0.29727890       0.04736180       0.88822100
    15  H          0.78230000       0.59290000       0.11810000
    16  H          0.21770000       0.09290000       0.88190000
    17  H          0.67930000       0.42450000       0.06430000
    18  H          0.32070000       0.92450000       0.93570000
    19  C          0.61287100       0.72832180       0.06504800
    20  C          0.38712900       0.22832180       0.93495200
    21  H          0.53380000       0.67790000       0.06030000
    22  H          0.46620000       0.17790000       0.93970000
    23  C          0.64762100       0.92064180       0.13998800
    24  C          0.35237900       0.42064180       0.86001200
    25  H          0.72480000       0.97630000       0.14470000
    26  H          0.27520000       0.47630000       0.85530000
    27  H          0.58770000       0.03270000       0.11120000
    28  H          0.41230000       0.53270000       0.88880000
    29  C          0.65614900       0.85929170       0.25085800
    30  C          0.34385100       0.35929170       0.74914200
    31  C          0.59125100       0.96490170       0.29509800
    32  C          0.40874900       0.46490170       0.70490200
    33  H          0.54210000       0.07590000       0.25610000
    34  H          0.45790000       0.57590000       0.74390000
    35  C          0.59218100       0.91665170       0.40377800
    36  C          0.40781900       0.41665170       0.59622200
    37  H          0.51970000       0.83770000       0.39570000
    38  H          0.48030000       0.33770000       0.60430000
    39  H          0.59150000       0.05010000       0.44020000
    40  H          0.40850000       0.55010000       0.55980000
    41  C          0.70284900       0.78586160       0.47190800
    42  C          0.29715100       0.28586160       0.52809200
    43  H          0.77500000       0.87640000       0.49370000
    44  H          0.22500000       0.37640000       0.50630000
    45  C          0.71675900       0.59469170       0.40465800
    46  C          0.28324100       0.09469170       0.59534200
    47  H          0.63870000       0.52070000       0.37750000
    48  H          0.36130000       0.02070000       0.62250000
    49  C          0.73827900       0.67053170       0.30409800
    50  C          0.26172100       0.17053170       0.69590200
    51  C          0.81073100       0.42752170       0.47164800
    52  C          0.18926900       0.92752170       0.52835200
    53  H          0.80240000       0.30010000       0.42840000
    54  H          0.19760000       0.80010000       0.57160000
    55  H          0.89090000       0.48510000       0.48810000
    56  H          0.10910000      -0.01490000       0.51190000
    57  C          0.80054900       0.36174170       0.57740800
    58  C          0.19945100       0.86174170       0.42259200
    59  H          0.72750000       0.27850000       0.56180000
    60  H          0.27250000       0.77850000       0.43820000
    61  H          0.86890000       0.27270000       0.61880000
    62  H          0.13110000       0.77270000       0.38120000
    63  C          0.79745900       0.56016170       0.64284800
    64  C          0.20254100       0.06016170       0.35715200
    65  C          0.68889900       0.69620170       0.57087800
    66  C          0.31110100       0.19620170       0.42912200
    67  H          0.62080000       0.59620000       0.54360000
    68  H          0.37920000       0.09620000       0.45640000
    69  C          0.66119100       0.84250180       0.64992800
    70  C          0.33880900       0.34250180       0.35007200
    71  H          0.71190000       0.96920000       0.66780000
    72  H          0.28810000       0.46920000       0.33220000
    73  H          0.57700000       0.88490000       0.62240000
    74  H          0.42300000       0.38490000       0.37760000
    75  C          0.69237900       0.69179180       0.74452800
    76  C          0.30762100       0.19179180       0.25547200
    77  H          0.66600000       0.71040000       0.79990000
    78  H          0.33400000       0.21040000       0.20010000
    79  C          0.76212900       0.52900170       0.73920800
    80  C          0.23787100       0.02900170       0.26079200
    81  C          0.87047100       0.74047190       0.33400900
    82  C          0.12952900       0.24047190       0.66599100
    83  H          0.89430000       0.83570000       0.39430000
    84  H          0.10570000       0.33570000       0.60570000
    85  H          0.87760000       0.81270000       0.27430000
    86  H          0.12240000       0.31270000       0.72570000
    87  H          0.92180000       0.61650000       0.35200000
    88  H          0.07820000       0.11650000       0.64800000
    89  C          0.91730900       0.68664180       0.68079800
    90  C          0.08269100       0.18664180       0.31920200
    91  H          0.90640000       0.82350000       0.70800000
    92  H          0.09360000       0.32350000       0.29200000
    93  H          0.94110000       0.70710000       0.62170000
    94  H          0.05890000       0.20710000       0.37830000
    95  H          0.97890000       0.60780000       0.73630000
    96  H          0.02110000       0.10780000       0.26370000
    97  C          0.80167900       0.35050180       0.81582800
    98  C          0.19832100       0.85050180       0.18417200
    99  C          0.90910100       0.23683180       0.83898800
   100  C          0.09089900       0.73683180       0.16101200
   101  H          0.96120000       0.27460000       0.80610000
   102  H          0.03880000       0.77460000       0.19390000
   103  C          0.93808100       0.06733190       0.91114900
   104  C          0.06191900       0.56733190       0.08885100
   105  H          0.01020000      -0.00730000       0.92840000
   106  H         -0.01020000       0.49270000       0.07160000
   107  C          0.85725110       0.01213190       0.95665900
   108  C          0.14274890       0.51213190       0.04334100
   109  H          0.87630000       0.89770000       0.00430000
   110  H          0.12370000       0.39770000      -0.00430000
   111  C          0.72677100       0.27957180       0.86693800
   112  C          0.27322900       0.77957180       0.13306200
   113  H          0.65440000       0.35170000       0.85200000
   114  H          0.34560000       0.85170000       0.14800000
