data_ZEXREZ
_symmetry_space_group_name_H-M    'P1'
_symmetry_Int_Tables_number       1
loop_
_symmetry_equiv_pos_site_id
_symmetry_equiv_pos_as_xyz
1 x,y,z
_cell_length_a                   13.7585
_cell_length_b                   5.3911
_cell_length_c                   16.8444
_cell_angle_alpha                90.0
_cell_angle_beta                 93.003
_cell_angle_gamma                90.0
loop_
_atom_site_label
_atom_site_type_symbol
_atom_site_fract_x
_atom_site_fract_y
_atom_site_fract_z
     1  C          0.76571000       0.65782000       0.02461000
     2  C          0.23429000       0.65782000       0.47539000
     3  C          0.26571000       0.15782000       0.02461000
     4  C          0.73429000       0.15782000       0.47539000
     5  C          0.23429000       0.34218000       0.97539000
     6  C          0.76571000       0.34218000       0.52461000
     7  C          0.73429000       0.84218000       0.97539000
     8  C          0.26571000       0.84218000       0.52461000
     9  C          0.86821000       0.54832000       0.02871000
    10  C          0.13179000       0.54832000       0.47129000
    11  C          0.36821000       0.04832000       0.02871000
    12  C          0.63179000       0.04832000       0.47129000
    13  C          0.13179000       0.45168000       0.97129000
    14  C          0.86821000       0.45168000       0.52871000
    15  C          0.63179000       0.95168000       0.97129000
    16  C          0.36821000       0.95168000       0.52871000
    17  C          0.86881000       0.34063000       0.09131000
    18  C          0.13119000       0.34063000       0.40869000
    19  C          0.36881000       0.84063000       0.09131000
    20  C          0.63119000       0.84063000       0.40869000
    21  C          0.13119000       0.65937000       0.90869000
    22  C          0.86881000       0.65937000       0.59131000
    23  C          0.63119000       0.15937000       0.90869000
    24  C          0.36881000       0.15937000       0.59131000
    25  C          0.76721000       0.33672000       0.11961000
    26  C          0.23279000       0.33672000       0.38039000
    27  C          0.26721000       0.83672000       0.11961000
    28  C          0.73279000       0.83672000       0.38039000
    29  C          0.23279000       0.66328000       0.88039000
    30  C          0.76721000       0.66328000       0.61961000
    31  C          0.73279000       0.16328000       0.88039000
    32  C          0.26721000       0.16328000       0.61961000
    33  C          0.72941000       0.17653000       0.17451000
    34  C          0.27059000       0.17653000       0.32549000
    35  C          0.22941000       0.67653000       0.17451000
    36  C          0.77059000       0.67653000       0.32549000
    37  C          0.27059000       0.82347000       0.82549000
    38  C          0.72941000       0.82347000       0.67451000
    39  C          0.77059000       0.32347000       0.82549000
    40  C          0.22941000       0.32347000       0.67451000
    41  C          0.63321000       0.19893000       0.19321000
    42  C          0.36679000       0.19893000       0.30679000
    43  C          0.13321000       0.69893000       0.19321000
    44  C          0.86679000       0.69893000       0.30679000
    45  C          0.36679000       0.80107000       0.80679000
    46  C          0.63321000       0.80107000       0.69321000
    47  C          0.86679000       0.30107000       0.80679000
    48  C          0.13321000       0.30107000       0.69321000
    49  C          0.57531000       0.38233000       0.15771000
    50  C          0.42469000       0.38233000       0.34229000
    51  C          0.07531000       0.88233000       0.15771000
    52  C          0.92469000       0.88233000       0.34229000
    53  C          0.42469000       0.61767000       0.84229000
    54  C          0.57531000       0.61767000       0.65771000
    55  C          0.92469000       0.11767000       0.84229000
    56  C          0.07531000       0.11767000       0.65771000
    57  C          0.61231000       0.54282000       0.10271000
    58  C          0.38769000       0.54282000       0.39729000
    59  C          0.11231000       0.04282000       0.10271000
    60  C          0.88769000       0.04282000       0.39729000
    61  C          0.38769000       0.45718000       0.89729000
    62  C          0.61231000       0.45718000       0.60271000
    63  C          0.88769000       0.95718000       0.89729000
    64  C          0.11231000       0.95718000       0.60271000
    65  C          0.70931000       0.52082000       0.08221000
    66  C          0.29069000       0.52082000       0.41779000
    67  C          0.20931000       0.02082000       0.08221000
    68  C          0.79069000       0.02082000       0.41779000
    69  C          0.29069000       0.47918000       0.91779000
    70  C          0.70931000       0.47918000       0.58221000
    71  C          0.79069000      -0.02082000       0.91779000
    72  C          0.20931000      -0.02082000       0.58221000
    73  H          0.91891000       0.67612600       0.04278000
    74  H          0.08109000       0.67612600       0.45722000
    75  H          0.41891000       0.17612600       0.04278000
    76  H          0.58109000       0.17612600       0.45722000
    77  H          0.08109000       0.32387400       0.95722000
    78  H          0.91891000       0.32387400       0.54278000
    79  H          0.58109000       0.82387400       0.95722000
    80  H          0.41891000       0.82387400       0.54278000
    81  H          0.88521000       0.48532600       0.97482000
    82  H          0.11479000       0.48532600       0.52518000
    83  H          0.38521000      -0.01467400       0.97482000
    84  H          0.61479000      -0.01467400       0.52518000
    85  H          0.11479000       0.51467400       0.02518000
    86  H          0.88521000       0.51467400       0.47482000
    87  H          0.61479000       0.01467400       0.02518000
    88  H          0.38521000       0.01467400       0.47482000
    89  H          0.91771100       0.37392800       0.13629000
    90  H          0.08228900       0.37392800       0.36371000
    91  H          0.41771100       0.87392800       0.13629000
    92  H          0.58228900       0.87392800       0.36371000
    93  H          0.08228900       0.62607200       0.86371000
    94  H          0.91771100       0.62607200       0.63629000
    95  H          0.58228900       0.12607200       0.86371000
    96  H          0.41771100       0.12607200       0.63629000
    97  H          0.88531100       0.17702900       0.06859000
    98  H          0.11468900       0.17702900       0.43141000
    99  H          0.38531100       0.67702900       0.06859000
   100  H          0.61468900       0.67702900       0.43141000
   101  H          0.11468900       0.82297100       0.93141000
   102  H          0.88531100       0.82297100       0.56859000
   103  H          0.61468900       0.32297100       0.93141000
   104  H          0.38531100       0.32297100       0.56859000
   105  H          0.77251100       0.05043000       0.19869000
   106  H          0.22748900       0.05043000       0.30131000
   107  H          0.27251100       0.55043000       0.19869000
   108  H          0.72748900       0.55043000       0.30131000
   109  H          0.22748900       0.94957000       0.80131000
   110  H          0.77251100       0.94957000       0.69869000
   111  H          0.72748900       0.44957000       0.80131000
   112  H          0.27251100       0.44957000       0.69869000
   113  H          0.60521200       0.08673300       0.23231000
   114  H          0.39478800       0.08673300       0.26769000
   115  H          0.10521200       0.58673300       0.23231000
   116  H          0.89478800       0.58673300       0.26769000
   117  H          0.39478800       0.91326700       0.76769000
   118  H          0.60521200       0.91326700       0.73231000
   119  H          0.89478800       0.41326700       0.76769000
   120  H          0.10521200       0.41326700       0.73231000
   121  H          0.50651100       0.40312700       0.17239000
   122  H          0.49348900       0.40312700       0.32761000
   123  H          0.00651100       0.90312700       0.17239000
   124  H         -0.00651100       0.90312700       0.32761000
   125  H          0.49348900       0.59687300       0.82761000
   126  H          0.50651100       0.59687300       0.67239000
   127  H         -0.00651100       0.09687300       0.82761000
   128  H          0.00651100       0.09687300       0.67239000
   129  H          0.57001100       0.66992800       0.07951000
   130  H          0.42998900       0.66992800       0.42049000
   131  H          0.07001100       0.16992800       0.07951000
   132  H          0.92998900       0.16992800       0.42049000
   133  H          0.42998900       0.33007200       0.92049000
   134  H          0.57001100       0.33007200       0.57951000
   135  H          0.92998900       0.83007200       0.92049000
   136  H          0.07001100       0.83007200       0.57951000
