data_ZEXREZ02
_symmetry_space_group_name_H-M    'P1'
_symmetry_Int_Tables_number       1
loop_
_symmetry_equiv_pos_site_id
_symmetry_equiv_pos_as_xyz
1 x,y,z
_cell_length_a                   5.384216
_cell_length_b                   5.063915
_cell_length_c                   22.7727
_cell_angle_alpha                90.0
_cell_angle_beta                 92.4416
_cell_angle_gamma                90.0
loop_
_atom_site_label
_atom_site_type_symbol
_atom_site_fract_x
_atom_site_fract_y
_atom_site_fract_z
     1  C          0.91357000       0.71063000       0.10471000
     2  C          0.08643000       0.21063000       0.39529000
     3  C          0.08643000       0.28937000       0.89529000
     4  C          0.91357000       0.78937000       0.60471000
     5  C          0.94677000       0.62824000       0.16221000
     6  C          0.05323000       0.12824000       0.33779000
     7  C          0.05323000       0.37176000       0.83779000
     8  C          0.94677000       0.87176000       0.66221000
     9  C          0.13354000       0.73304000       0.19851000
    10  C          0.86646000       0.23304000       0.30149000
    11  C          0.86646000       0.26696000       0.80149000
    12  C          0.13354000       0.76696000       0.69851000
    13  C          0.28833000       0.92684000       0.17751000
    14  C          0.71167000       0.42684000       0.32249000
    15  C          0.71167000       0.07316000       0.82249000
    16  C          0.28833000       0.57316000       0.67751000
    17  C          0.25533000       0.01313000       0.11991000
    18  C          0.74467000       0.51313000       0.38009000
    19  C          0.74467000      -0.01313000       0.88009000
    20  C          0.25533000       0.48687000       0.61991000
    21  C          0.06822000       0.90592000       0.08261000
    22  C          0.93178000       0.40592000       0.41739000
    23  C          0.93178000       0.09408000       0.91739000
    24  C          0.06822000       0.59408000       0.58261000
    25  C          0.07342000       0.02842000       0.02401000
    26  C          0.92658000       0.52842000       0.47599000
    27  C          0.92658000       0.97158000       0.97599000
    28  C          0.07342000       0.47158000       0.52401000
    29  C          0.27872000       0.23693000       0.02701000
    30  C          0.72128000       0.73693000       0.47299000
    31  C          0.72128000       0.76307000       0.97299000
    32  C          0.27872000       0.26307000       0.52701000
    33  C          0.40033000       0.22093000       0.08901000
    34  C          0.59967000       0.72093000       0.41099000
    35  C          0.59967000       0.77907000       0.91099000
    36  C          0.40033000       0.27907000       0.58901000
    37  H          0.78196000       0.63304000       0.08028000
    38  H          0.21804000       0.13304000       0.41972000
    39  H          0.21804000       0.36696000       0.91972000
    40  H          0.78196000       0.86696000       0.58028000
    41  H          0.83797000       0.49104000       0.17688000
    42  H          0.16203000      -0.00896000       0.32312000
    43  H          0.16203000       0.50896000       0.82312000
    44  H          0.83797000       0.00896000       0.67688000
    45  H          0.15404000       0.67804000       0.23919000
    46  H          0.84596000       0.17804000       0.26081000
    47  H          0.84596000       0.32196000       0.76081000
    48  H          0.15404000       0.82196000       0.73919000
    49  H          0.41404000       0.00304000       0.20259000
    50  H          0.58596000       0.50304000       0.29741000
    51  H          0.58596000      -0.00304000       0.79741000
    52  H          0.41404000       0.49696000       0.70259000
    53  H          0.20503000       0.41903000       0.01927000
    54  H          0.79497000       0.91903000       0.48073000
    55  H          0.79497000       0.58097000       0.98073000
    56  H          0.20503000       0.08097000       0.51927000
    57  H          0.40203000       0.20003000      -0.00207000
    58  H          0.59797000       0.70003000       0.50207000
    59  H          0.59797000       0.79997000       0.00207000
    60  H          0.40203000       0.29997000       0.49793000
    61  H          0.39203000       0.39304000       0.10958000
    62  H          0.60797000       0.89304000       0.39042000
    63  H          0.60797000       0.60696000       0.89042000
    64  H          0.39203000       0.10696000       0.60958000
    65  H          0.57904000       0.16504000       0.08898000
    66  H          0.42096000       0.66504000       0.41102000
    67  H          0.42096000       0.83496000       0.91102000
    68  H          0.57904000       0.33496000       0.58898000
