data_ZEXREZ01
_symmetry_space_group_name_H-M    'P1'
_symmetry_Int_Tables_number       1
loop_
_symmetry_equiv_pos_site_id
_symmetry_equiv_pos_as_xyz
1 x,y,z
_cell_length_a                   43.7175
_cell_length_b                   8.07511
_cell_length_c                   7.265112
_cell_angle_alpha                90.0
_cell_angle_beta                 96.8606
_cell_angle_gamma                90.0
loop_
_atom_site_label
_atom_site_type_symbol
_atom_site_fract_x
_atom_site_fract_y
_atom_site_fract_z
     1  C          0.01521400       0.01183000       0.01333000
     2  C          0.51521400       0.51183000       0.01333000
     3  C          0.98478600       0.01183000       0.48667000
     4  C          0.48478600       0.51183000       0.48667000
     5  C          0.98478600      -0.01183000      -0.01333000
     6  C          0.48478600       0.48817000      -0.01333000
     7  C          0.01521400      -0.01183000       0.51333000
     8  C          0.51521400       0.48817000       0.51333000
     9  C          0.03039500       0.18323000       0.02623000
    10  C          0.53039500       0.68323000       0.02623000
    11  C          0.96960500       0.18323000       0.47377000
    12  C          0.46960500       0.68323000       0.47377000
    13  C          0.96960500       0.81677000       0.97377000
    14  C          0.46960500       0.31677000       0.97377000
    15  C          0.03039500       0.81677000       0.52623000
    16  C          0.53039500       0.31677000       0.52623000
    17  H          0.02410000       0.24510000       0.12970000
    18  H          0.52410000       0.74510000       0.12970000
    19  H          0.97590000       0.24510000       0.37030000
    20  H          0.47590000       0.74510000       0.37030000
    21  H          0.97590000       0.75490000       0.87030000
    22  H          0.47590000       0.25490000       0.87030000
    23  H          0.02410000       0.75490000       0.62970000
    24  H          0.52410000       0.25490000       0.62970000
    25  H          0.02470000       0.24550000       0.91310000
    26  H          0.52470000       0.74550000       0.91310000
    27  H          0.97530000       0.24550000       0.58690000
    28  H          0.47530000       0.74550000       0.58690000
    29  H          0.97530000       0.75450000       0.08690000
    30  H          0.47530000       0.25450000       0.08690000
    31  H          0.02470000       0.75450000       0.41310000
    32  H          0.52470000       0.25450000       0.41310000
    33  C          0.06565500       0.15023000       0.05523000
    34  C          0.56565500       0.65023000       0.05523000
    35  C          0.93434500       0.15023000       0.44477000
    36  C          0.43434500       0.65023000       0.44477000
    37  C          0.93434500       0.84977000       0.94477000
    38  C          0.43434500       0.34977000       0.94477000
    39  C          0.06565500       0.84977000       0.55523000
    40  C          0.56565500       0.34977000       0.55523000
    41  H          0.07550000       0.19820000       0.95500000
    42  H          0.57550000       0.69820000       0.95500000
    43  H          0.92450000       0.19820000       0.54500000
    44  H          0.42450000       0.69820000       0.54500000
    45  H          0.92450000       0.80180000       0.04500000
    46  H          0.42450000       0.30180000       0.04500000
    47  H          0.07550000       0.80180000       0.45500000
    48  H          0.57550000       0.30180000       0.45500000
    49  H          0.07490000       0.19720000       0.17160000
    50  H          0.57490000       0.69720000       0.17160000
    51  H          0.92510000       0.19720000       0.32840000
    52  H          0.42510000       0.69720000       0.32840000
    53  H          0.92510000       0.80280000       0.82840000
    54  H          0.42510000       0.30280000       0.82840000
    55  H          0.07490000       0.80280000       0.67160000
    56  H          0.57490000       0.30280000       0.67160000
    57  C          0.06890700       0.96624000       0.05693000
    58  C          0.56890700       0.46624000       0.05693000
    59  C          0.93109300       0.96624000       0.44307000
    60  C          0.43109300       0.46624000       0.44307000
    61  C          0.93109300       0.03376000       0.94307000
    62  C          0.43109300       0.53376000       0.94307000
    63  C          0.06890700       0.03376000       0.55693000
    64  C          0.56890700       0.53376000       0.55693000
    65  C          0.09603600       0.87684000       0.08033000
    66  C          0.59603600       0.37684000       0.08033000
    67  C          0.90396400       0.87684000       0.41967000
    68  C          0.40396400       0.37684000       0.41967000
    69  C          0.90396400       0.12316000       0.91967000
    70  C          0.40396400       0.62316000       0.91967000
    71  C          0.09603600       0.12316000       0.58033000
    72  C          0.59603600       0.62316000       0.58033000
    73  H          0.11490000       0.93150000       0.09750000
    74  H          0.61490000       0.43150000       0.09750000
    75  H          0.88510000       0.93150000       0.40250000
    76  H          0.38510000       0.43150000       0.40250000
    77  H          0.88510000       0.06850000       0.90250000
    78  H          0.38510000       0.56850000       0.90250000
    79  H          0.11490000       0.06850000       0.59750000
    80  H          0.61490000       0.56850000       0.59750000
    81  C          0.09508700       0.70754000       0.07833000
    82  C          0.59508700       0.20754000       0.07833000
    83  C          0.90491300       0.70754000       0.42167000
    84  C          0.40491300       0.20754000       0.42167000
    85  C          0.90491300       0.29246000       0.92167000
    86  C          0.40491300       0.79246000       0.92167000
    87  C          0.09508700       0.29246000       0.57833000
    88  C          0.59508700       0.79246000       0.57833000
    89  H          0.11330000       0.64690000       0.09200000
    90  H          0.61330000       0.14690000       0.09200000
    91  H          0.88670000       0.64690000       0.40800000
    92  H          0.38670000       0.14690000       0.40800000
    93  H          0.88670000       0.35310000       0.90800000
    94  H          0.38670000       0.85310000       0.90800000
    95  H          0.11330000       0.35310000       0.59200000
    96  H          0.61330000       0.85310000       0.59200000
    97  C          0.06692800       0.62653000       0.05583000
    98  C          0.56692800       0.12653000       0.05583000
    99  C          0.93307200       0.62653000       0.44417000
   100  C          0.43307200       0.12653000       0.44417000
   101  C          0.93307200       0.37347000       0.94417000
   102  C          0.43307200       0.87347000       0.94417000
   103  C          0.06692800       0.37347000       0.55583000
   104  C          0.56692800       0.87347000       0.55583000
   105  H          0.06630000       0.51140000       0.05620000
   106  H          0.56630000       0.01140000       0.05620000
   107  H          0.93370000       0.51140000       0.44380000
   108  H          0.43370000       0.01140000       0.44380000
   109  H          0.93370000       0.48860000       0.94380000
   110  H          0.43370000      -0.01140000       0.94380000
   111  H          0.06630000       0.48860000       0.55620000
   112  H          0.56630000      -0.01140000       0.55620000
   113  C          0.03965600       0.71594000       0.03273000
   114  C          0.53965600       0.21594000       0.03273000
   115  C          0.96034400       0.71594000       0.46727000
   116  C          0.46034400       0.21594000       0.46727000
   117  C          0.96034400       0.28406000       0.96727000
   118  C          0.46034400       0.78406000       0.96727000
   119  C          0.03965600       0.28406000       0.53273000
   120  C          0.53965600       0.78406000       0.53273000
   121  H          0.02090000       0.66020000       0.01700000
   122  H          0.52090000       0.16020000       0.01700000
   123  H          0.97910000       0.66020000       0.48300000
   124  H          0.47910000       0.16020000       0.48300000
   125  H          0.97910000       0.33980000      -0.01700000
   126  H          0.47910000       0.83980000      -0.01700000
   127  H          0.02090000       0.33980000       0.51700000
   128  H          0.52090000       0.83980000       0.51700000
   129  C          0.04016600       0.88944000       0.03293000
   130  C          0.54016600       0.38944000       0.03293000
   131  C          0.95983400       0.88944000       0.46707000
   132  C          0.45983400       0.38944000       0.46707000
   133  C          0.95983400       0.11056000       0.96707000
   134  C          0.45983400       0.61056000       0.96707000
   135  C          0.04016600       0.11056000       0.53293000
   136  C          0.54016600       0.61056000       0.53293000
   137  C          0.23499400       0.76593000       0.47313000
   138  C          0.73499400       0.26593000       0.47313000
   139  C          0.76500600       0.76593000       0.02687000
   140  C          0.26500600       0.26593000       0.02687000
   141  C          0.76500600       0.23407000       0.52687000
   142  C          0.26500600       0.73407000       0.52687000
   143  C          0.23499400       0.23407000       0.97313000
   144  C          0.73499400       0.73407000       0.97313000
   145  C          0.22266500       0.85023000       0.29093000
   146  C          0.72266500       0.35023000       0.29093000
   147  C          0.77733500       0.85023000       0.20907000
   148  C          0.27733500       0.35023000       0.20907000
   149  C          0.77733500       0.14977000       0.70907000
   150  C          0.27733500       0.64977000       0.70907000
   151  C          0.22266500       0.14977000       0.79093000
   152  C          0.72266500       0.64977000       0.79093000
   153  H          0.22760000       0.78500000       0.18620000
   154  H          0.72760000       0.28500000       0.18620000
   155  H          0.77240000       0.78500000       0.31380000
   156  H          0.27240000       0.28500000       0.31380000
   157  H          0.77240000       0.21500000       0.81380000
   158  H          0.27240000       0.71500000       0.81380000
   159  H          0.22760000       0.21500000       0.68620000
   160  H          0.72760000       0.71500000       0.68620000
   161  H          0.23170000       0.95940000       0.28350000
   162  H          0.73170000       0.45940000       0.28350000
   163  H          0.76830000       0.95940000       0.21650000
   164  H          0.26830000       0.45940000       0.21650000
   165  H          0.76830000       0.04060000       0.71650000
   166  H          0.26830000       0.54060000       0.71650000
   167  H          0.23170000       0.04060000       0.78350000
   168  H          0.73170000       0.54060000       0.78350000
   169  C          0.18768500       0.86343000       0.29003000
   170  C          0.68768500       0.36343000       0.29003000
   171  C          0.81231500       0.86343000       0.20997000
   172  C          0.31231500       0.36343000       0.20997000
   173  C          0.81231500       0.13657000       0.70997000
   174  C          0.31231500       0.63657000       0.70997000
   175  C          0.18768500       0.13657000       0.79003000
   176  C          0.68768500       0.63657000       0.79003000
   177  H          0.18120000       0.97840000       0.28670000
   178  H          0.68120000       0.47840000       0.28670000
   179  H          0.81880000       0.97840000       0.21330000
   180  H          0.31880000       0.47840000       0.21330000
   181  H          0.81880000       0.02160000       0.71330000
   182  H          0.31880000       0.52160000       0.71330000
   183  H          0.18120000       0.02160000       0.78670000
   184  H          0.68120000       0.52160000       0.78670000
   185  H          0.17700000       0.80650000       0.18340000
   186  H          0.67700000       0.30650000       0.18340000
   187  H          0.82300000       0.80650000       0.31660000
   188  H          0.32300000       0.30650000       0.31660000
   189  H          0.82300000       0.19350000       0.81660000
   190  H          0.32300000       0.69350000       0.81660000
   191  H          0.17700000       0.19350000       0.68340000
   192  H          0.67700000       0.69350000       0.68340000
   193  C          0.18113600       0.78263000       0.46613000
   194  C          0.68113600       0.28263000       0.46613000
   195  C          0.81886400       0.78263000       0.03387000
   196  C          0.31886400       0.28263000       0.03387000
   197  C          0.81886400       0.21737000       0.53387000
   198  C          0.31886400       0.71737000       0.53387000
   199  C          0.18113600       0.21737000       0.96613000
   200  C          0.68113600       0.71737000       0.96613000
   201  C          0.15281600       0.75893000       0.52734000
   202  C          0.65281600       0.25893000       0.52734000
   203  C          0.84718400       0.75893000       0.97266000
   204  C          0.34718400       0.25893000       0.97266000
   205  C          0.84718400       0.24107000       0.47266000
   206  C          0.34718400       0.74107000       0.47266000
   207  C          0.15281600       0.24107000       0.02734000
   208  C          0.65281600       0.74107000       0.02734000
   209  H          0.13500000       0.79440000       0.45540000
   210  H          0.63500000       0.29440000       0.45540000
   211  H          0.86500000       0.79440000       0.04460000
   212  H          0.36500000       0.29440000       0.04460000
   213  H          0.86500000       0.20560000       0.54460000
   214  H          0.36500000       0.70560000       0.54460000
   215  H          0.13500000       0.20560000       0.95540000
   216  H          0.63500000       0.70560000       0.95540000
   217  C          0.15098600       0.68293000       0.69434000
   218  C          0.65098600       0.18293000       0.69434000
   219  C          0.84901400       0.68293000       0.80566000
   220  C          0.34901400       0.18293000       0.80566000
   221  C          0.84901400       0.31707000       0.30566000
   222  C          0.34901400       0.81707000       0.30566000
   223  C          0.15098600       0.31707000       0.19434000
   224  C          0.65098600       0.81707000       0.19434000
   225  H          0.13190000       0.66720000       0.73630000
   226  H          0.63190000       0.16720000       0.73630000
   227  H          0.86810000       0.66720000       0.76370000
   228  H          0.36810000       0.16720000       0.76370000
   229  H          0.86810000       0.33280000       0.26370000
   230  H          0.36810000       0.83280000       0.26370000
   231  H          0.13190000       0.33280000       0.23630000
   232  H          0.63190000       0.83280000       0.23630000
   233  C          0.17765700       0.62943000       0.80064000
   234  C          0.67765700       0.12943000       0.80064000
   235  C          0.82234300       0.62943000       0.69936000
   236  C          0.32234300       0.12943000       0.69936000
   237  C          0.82234300       0.37057000       0.19936000
   238  C          0.32234300       0.87057000       0.19936000
   239  C          0.17765700       0.37057000       0.30064000
   240  C          0.67765700       0.87057000       0.30064000
   241  H          0.17630000       0.57820000       0.91400000
   242  H          0.67630000       0.07820000       0.91400000
   243  H          0.82370000       0.57820000       0.58600000
   244  H          0.32370000       0.07820000       0.58600000
   245  H          0.82370000       0.42180000       0.08600000
   246  H          0.32370000       0.92180000       0.08600000
   247  H          0.17630000       0.42180000       0.41400000
   248  H          0.67630000       0.92180000       0.41400000
   249  C          0.20603600       0.65113000       0.74004000
   250  C          0.70603600       0.15113000       0.74004000
   251  C          0.79396400       0.65113000       0.75996000
   252  C          0.29396400       0.15113000       0.75996000
   253  C          0.79396400       0.34887000       0.25996000
   254  C          0.29396400       0.84887000       0.25996000
   255  C          0.20603600       0.34887000       0.24004000
   256  C          0.70603600       0.84887000       0.24004000
   257  H          0.22370000       0.61470000       0.81230000
   258  H          0.72370000       0.11470000       0.81230000
   259  H          0.77630000       0.61470000       0.68770000
   260  H          0.27630000       0.11470000       0.68770000
   261  H          0.77630000       0.38530000       0.18770000
   262  H          0.27630000       0.88530000       0.18770000
   263  H          0.22370000       0.38530000       0.31230000
   264  H          0.72370000       0.88530000       0.31230000
   265  C          0.20818500       0.72803000       0.57004000
   266  C          0.70818500       0.22803000       0.57004000
   267  C          0.79181500       0.72803000       0.92996000
   268  C          0.29181500       0.22803000       0.92996000
   269  C          0.79181500       0.27197000       0.42996000
   270  C          0.29181500       0.77197000       0.42996000
   271  C          0.20818500       0.27197000       0.07004000
   272  C          0.70818500       0.77197000       0.07004000
