data_ZIPKOA02
_symmetry_space_group_name_H-M    'P1'
_symmetry_Int_Tables_number       1
loop_
_symmetry_equiv_pos_site_id
_symmetry_equiv_pos_as_xyz
1 x,y,z
_cell_length_a                   13.73844
_cell_length_b                   9.10633
_cell_length_c                   24.14297
_cell_angle_alpha                90.0
_cell_angle_beta                 100.7473
_cell_angle_gamma                90.0
loop_
_atom_site_label
_atom_site_type_symbol
_atom_site_fract_x
_atom_site_fract_y
_atom_site_fract_z
     1  S          0.64493500       0.04457700       0.54154300
     2  S          0.35506500       0.04457700       0.95845700
     3  S          0.14493500       0.54457700       0.54154300
     4  S          0.85506500       0.54457700       0.95845700
     5  S          0.35506500       0.95542300       0.45845700
     6  S          0.64493500       0.95542300       0.04154300
     7  S          0.85506500       0.45542300       0.45845700
     8  S          0.14493500       0.45542300       0.04154300
     9  S          0.50782500       0.11933800       0.61835300
    10  S          0.49217500       0.11933800       0.88164700
    11  S          0.00782500       0.61933800       0.61835300
    12  S         -0.00782500       0.61933800       0.88164700
    13  S          0.49217500       0.88066200       0.38164700
    14  S          0.50782500       0.88066200       0.11835300
    15  S         -0.00782500       0.38066200       0.38164700
    16  S          0.00782500       0.38066200       0.11835300
    17  N          0.66630140       0.94322000       0.64200800
    18  N          0.33369860       0.94322000       0.85799200
    19  N          0.16630140       0.44322000       0.64200800
    20  N          0.83369860       0.44322000       0.85799200
    21  N          0.33369860       0.05678000       0.35799200
    22  N          0.66630140       0.05678000       0.14200800
    23  N          0.83369860       0.55678000       0.35799200
    24  N          0.16630140       0.55678000       0.14200800
    25  O          0.80170130       0.79272000       0.64912700
    26  O          0.19829870       0.79272000       0.85087300
    27  O          0.30170130       0.29272000       0.64912700
    28  O          0.69829870       0.29272000       0.85087300
    29  O          0.19829870       0.20728000       0.35087300
    30  O          0.80170130       0.20728000       0.14912700
    31  O          0.69829870       0.70728000       0.35087300
    32  O          0.30170130       0.70728000       0.14912700
    33  O          0.64972000       0.04693000       0.78305900
    34  O          0.35028000       0.04693000       0.71694100
    35  O          0.14972000       0.54693000       0.78305900
    36  O          0.85028000       0.54693000       0.71694100
    37  O          0.35028000       0.95307000       0.21694100
    38  O          0.64972000       0.95307000       0.28305900
    39  O          0.85028000       0.45307000       0.21694100
    40  O          0.14972000       0.45307000       0.28305900
    41  H          0.67250000       0.11530000       0.80350000
    42  H          0.32750000       0.11530000       0.69650000
    43  H          0.17250000       0.61530000       0.80350000
    44  H          0.82750000       0.61530000       0.69650000
    45  H          0.32750000       0.88470000       0.19650000
    46  H          0.67250000       0.88470000       0.30350000
    47  H          0.82750000       0.38470000       0.19650000
    48  H          0.17250000       0.38470000       0.30350000
    49  C          0.92166180       0.87053000       0.46845100
    50  C          0.07833820       0.87053000       0.03154900
    51  C          0.42166180       0.37053000       0.46845100
    52  C          0.57833820       0.37053000       0.03154900
    53  C          0.07833820       0.12947000       0.53154900
    54  C          0.92166180       0.12947000       0.96845100
    55  C          0.57833820       0.62947000       0.53154900
    56  C          0.42166180       0.62947000       0.96845100
    57  H          0.95970000       0.81460000       0.49670000
    58  H          0.04030000       0.81460000       0.00330000
    59  H          0.45970000       0.31460000       0.49670000
    60  H          0.54030000       0.31460000       0.00330000
    61  H          0.04030000       0.18540000       0.50330000
    62  H          0.95970000       0.18540000      -0.00330000
    63  H          0.54030000       0.68540000       0.50330000
    64  H          0.45970000       0.68540000      -0.00330000
    65  C          0.82028170       0.88903000       0.53781900
    66  C          0.17971830       0.88903000       0.96218100
    67  C          0.32028170       0.38903000       0.53781900
    68  C          0.67971830       0.38903000       0.96218100
    69  C          0.17971830       0.11097000       0.46218100
    70  C          0.82028170       0.11097000       0.03781900
    71  C          0.67971830       0.61097000       0.46218100
    72  C          0.32028170       0.61097000       0.03781900
    73  H          0.86780000       0.82820000       0.55870000
    74  H          0.13220000       0.82820000       0.94130000
    75  H          0.36780000       0.32820000       0.55870000
    76  H          0.63220000       0.32820000       0.94130000
    77  H          0.13220000       0.17180000       0.44130000
    78  H          0.86780000       0.17180000       0.05870000
    79  H          0.63220000       0.67180000       0.44130000
    80  H          0.36780000       0.67180000       0.05870000
    81  C          0.74469170       0.87872000       0.62197900
    82  C          0.25530830       0.87872000       0.87802100
    83  C          0.24469170       0.37872000       0.62197900
    84  C          0.75530830       0.37872000       0.87802100
    85  C          0.25530830       0.12128000       0.37802100
    86  C          0.74469170       0.12128000       0.12197900
    87  C          0.75530830       0.62128000       0.37802100
    88  C          0.24469170       0.62128000       0.12197900
    89  C          0.68115190       0.05613000       0.73473110
    90  C          0.31884810       0.05613000       0.76526890
    91  C          0.18115190       0.55613000       0.73473110
    92  C          0.81884810       0.55613000       0.76526890
    93  C          0.31884810       0.94387000       0.26526890
    94  C          0.68115190       0.94387000       0.23473110
    95  C          0.81884810       0.44387000       0.26526890
    96  C          0.18115190       0.44387000       0.23473110
    97  C          0.83749170       0.92523000       0.48194900
    98  C          0.16250830       0.92523000       0.01805100
    99  C          0.33749170       0.42523000       0.48194900
   100  C          0.66250830       0.42523000       0.01805100
   101  C          0.16250830       0.07477000       0.51805100
   102  C          0.83749170       0.07477000       0.98194900
   103  C          0.66250830       0.57477000       0.51805100
   104  C          0.33749170       0.57477000       0.98194900
   105  C          0.96303180       0.88413000       0.41732100
   106  C          0.03696820       0.88413000       0.08267900
   107  C          0.46303180       0.38413000       0.41732100
   108  C          0.53696820       0.38413000       0.08267900
   109  C          0.03696820       0.11587000       0.58267900
   110  C          0.96303180       0.11587000       0.91732100
   111  C          0.53696820       0.61587000       0.58267900
   112  C          0.46303180       0.61587000       0.91732100
   113  C          0.93922000      -0.00657000       0.37630130
   114  C          0.06078000      -0.00657000       0.12369870
   115  C          0.43922000       0.49343000       0.37630130
   116  C          0.56078000       0.49343000       0.12369870
   117  C          0.06078000       0.00657000       0.62369870
   118  C          0.93922000       0.00657000       0.87630130
   119  C          0.56078000       0.50657000       0.62369870
   120  C          0.43922000       0.50657000       0.87630130
   121  H          0.89220000       0.06400000       0.38040000
   122  H          0.10780000       0.06400000       0.11960000
   123  H          0.39220000       0.56400000       0.38040000
   124  H          0.60780000       0.56400000       0.11960000
   125  H          0.10780000       0.93600000       0.61960000
   126  H          0.89220000       0.93600000       0.88040000
   127  H          0.60780000       0.43600000       0.61960000
   128  H          0.39220000       0.43600000       0.88040000
   129  O          0.72722180       0.15703000       0.72098900
   130  O          0.27277820       0.15703000       0.77901100
   131  O          0.22722180       0.65703000       0.72098900
   132  O          0.77277820       0.65703000       0.77901100
   133  O          0.27277820       0.84297000       0.27901100
   134  O          0.72722180       0.84297000       0.22098900
   135  O          0.77277820       0.34297000       0.27901100
   136  O          0.22722180       0.34297000       0.22098900
   137  C          0.60561190       0.03353000       0.60571110
   138  C          0.39438810       0.03353000       0.89428890
   139  C          0.10561190       0.53353000       0.60571110
   140  C          0.89438810       0.53353000       0.89428890
   141  C          0.39438810       0.96647000       0.39428890
   142  C          0.60561190       0.96647000       0.10571110
   143  C          0.89438810       0.46647000       0.39428890
   144  C          0.10561190       0.46647000       0.10571110
   145  C          0.65119190       0.92143000       0.69939100
   146  C          0.34880810       0.92143000       0.80060900
   147  C          0.15119190       0.42143000       0.69939100
   148  C          0.84880810       0.42143000       0.80060900
   149  C          0.34880810       0.07857000       0.30060900
   150  C          0.65119190       0.07857000       0.19939100
   151  C          0.84880810       0.57857000       0.30060900
   152  C          0.15119190       0.57857000       0.19939100
   153  H          0.69000000       0.83800000       0.71590000
   154  H          0.31000000       0.83800000       0.78410000
   155  H          0.19000000       0.33800000       0.71590000
   156  H          0.81000000       0.33800000       0.78410000
   157  H          0.31000000       0.16200000       0.28410000
   158  H          0.69000000       0.16200000       0.21590000
   159  H          0.81000000       0.66200000       0.28410000
   160  H          0.19000000       0.66200000       0.21590000
   161  H          0.58190000       0.89990000       0.69900000
   162  H          0.41810000       0.89990000       0.80100000
   163  H          0.08190000       0.39990000       0.69900000
   164  H          0.91810000       0.39990000       0.80100000
   165  H          0.41810000       0.10010000       0.30100000
   166  H          0.58190000       0.10010000       0.19900000
   167  H          0.91810000       0.60010000       0.30100000
   168  H          0.08190000       0.60010000       0.19900000
   169  C          0.74654170       0.92932000       0.56420900
   170  C          0.25345830       0.92932000       0.93579100
   171  C          0.24654170       0.42932000       0.56420900
   172  C          0.75345830       0.42932000       0.93579100
   173  C          0.25345830       0.07068000       0.43579100
   174  C          0.74654170       0.07068000       0.06420900
   175  C          0.75345830       0.57068000       0.43579100
   176  C          0.24654170       0.57068000       0.06420900
   177  C          0.03667190       0.78443000       0.40987110
   178  C          0.96332810       0.78443000       0.09012890
   179  C          0.53667190       0.28443000       0.40987110
   180  C          0.46332810       0.28443000       0.09012890
   181  C          0.96332810       0.21557000       0.59012890
   182  C          0.03667190       0.21557000       0.90987110
   183  C          0.46332810       0.71557000       0.59012890
   184  C          0.53667190       0.71557000       0.90987110
   185  H          0.05600000       0.71230000       0.43700000
   186  H          0.94400000       0.71230000       0.06300000
   187  H          0.55600000       0.21230000       0.43700000
   188  H          0.44400000       0.21230000       0.06300000
   189  H          0.94400000       0.28770000       0.56300000
   190  H          0.05600000       0.28770000       0.93700000
   191  H          0.44400000       0.78770000       0.56300000
   192  H          0.55600000       0.78770000       0.93700000
   193  C          0.05522000       0.89654000       0.32305110
   194  C          0.94478000       0.89654000       0.17694890
   195  C          0.55522000       0.39654000       0.32305110
   196  C          0.44478000       0.39654000       0.17694890
   197  C          0.94478000       0.10346000       0.67694890
   198  C          0.05522000       0.10346000       0.82305110
   199  C          0.44478000       0.60346000       0.67694890
   200  C          0.55522000       0.60346000       0.82305110
   201  H          0.08500000       0.89980000       0.29150000
   202  H          0.91500000       0.89980000       0.20850000
   203  H          0.58500000       0.39980000       0.29150000
   204  H          0.41500000       0.39980000       0.20850000
   205  H          0.91500000       0.10020000       0.70850000
   206  H          0.08500000       0.10020000       0.79150000
   207  H          0.41500000       0.60020000       0.70850000
   208  H          0.58500000       0.60020000       0.79150000
   209  C          0.76052000       0.00834000       0.44232120
   210  C          0.23948000       0.00834000       0.05767880
   211  C          0.26052000       0.50834000       0.44232120
   212  C          0.73948000       0.50834000       0.05767880
   213  C          0.23948000      -0.00834000       0.55767880
   214  C          0.76052000      -0.00834000       0.94232120
   215  C          0.73948000       0.49166000       0.55767880
   216  C          0.26052000       0.49166000       0.94232120
   217  H          0.76920000       0.11170000       0.44940000
   218  H          0.23080000       0.11170000       0.05060000
   219  H          0.26920000       0.61170000       0.44940000
   220  H          0.73080000       0.61170000       0.05060000
   221  H          0.23080000       0.88830000       0.55060000
   222  H          0.76920000       0.88830000       0.94940000
   223  H          0.73080000       0.38830000       0.55060000
   224  H          0.26920000       0.38830000       0.94940000
   225  H          0.69580000       0.97930000       0.44790000
   226  H          0.30420000       0.97930000       0.05210000
   227  H          0.19580000       0.47930000       0.44790000
   228  H          0.80420000       0.47930000       0.05210000
   229  H          0.30420000       0.02070000       0.55210000
   230  H          0.69580000       0.02070000       0.94790000
   231  H          0.80420000       0.52070000       0.55210000
   232  H          0.19580000       0.52070000       0.94790000
   233  H          0.76680000      -0.01260000       0.40420000
   234  H          0.23320000      -0.01260000       0.09580000
   235  H          0.26680000       0.48740000       0.40420000
   236  H          0.73320000       0.48740000       0.09580000
   237  H          0.23320000       0.01260000       0.59580000
   238  H          0.76680000       0.01260000       0.90420000
   239  H          0.73320000       0.51260000       0.59580000
   240  H          0.26680000       0.51260000       0.90420000
   241  C          0.98453000      -0.00206000       0.32990130
   242  C          0.01547000      -0.00206000       0.17009870
   243  C          0.48453000       0.49794000       0.32990130
   244  C          0.51547000       0.49794000       0.17009870
   245  C          0.01547000       0.00206000       0.67009870
   246  C          0.98453000       0.00206000       0.82990130
   247  C          0.51547000       0.50206000       0.67009870
   248  C          0.48453000       0.50206000       0.82990130
   249  H          0.96680000       0.07070000       0.30290000
   250  H          0.03320000       0.07070000       0.19710000
   251  H          0.46680000       0.57070000       0.30290000
   252  H          0.53320000       0.57070000       0.19710000
   253  H          0.03320000       0.92930000       0.69710000
   254  H          0.96680000       0.92930000       0.80290000
   255  H          0.53320000       0.42930000       0.69710000
   256  H          0.46680000       0.42930000       0.80290000
   257  C          0.08152000       0.78994000       0.36341120
   258  C          0.91848000       0.78994000       0.13658880
   259  C          0.58152000       0.28994000       0.36341120
   260  C          0.41848000       0.28994000       0.13658880
   261  C          0.91848000       0.21006000       0.63658880
   262  C          0.08152000       0.21006000       0.86341120
   263  C          0.41848000       0.71006000       0.63658880
   264  C          0.58152000       0.71006000       0.86341120
   265  H          0.12970000       0.72120000       0.35930000
   266  H          0.87030000       0.72120000       0.14070000
   267  H          0.62970000       0.22120000       0.35930000
   268  H          0.37030000       0.22120000       0.14070000
   269  H          0.87030000       0.27880000       0.64070000
   270  H          0.12970000       0.27880000       0.85930000
   271  H          0.37030000       0.77880000       0.64070000
   272  H          0.62970000       0.77880000       0.85930000
