data_ZIPKOA01
_symmetry_space_group_name_H-M    'P1'
_symmetry_Int_Tables_number       1
loop_
_symmetry_equiv_pos_site_id
_symmetry_equiv_pos_as_xyz
1 x,y,z
_cell_length_a                   14.783113
_cell_length_b                   5.62885
_cell_length_c                   18.262116
_cell_angle_alpha                90.0
_cell_angle_beta                 98.3648
_cell_angle_gamma                90.0
loop_
_atom_site_label
_atom_site_type_symbol
_atom_site_fract_x
_atom_site_fract_y
_atom_site_fract_z
     1  S          0.90427400       0.30901120       0.05578300
     2  S          0.59572600       0.80901120       0.44421700
     3  S          0.09572600       0.69098880       0.94421700
     4  S          0.40427400       0.19098880       0.55578300
     5  S          0.81413500       0.71462140       0.97139600
     6  S          0.68586500       0.21462140       0.52860400
     7  S          0.18586500       0.28537860       0.02860400
     8  S          0.31413500       0.78537860       0.47139600
     9  N          0.77209120       0.53873000       0.09812100
    10  N          0.72790880       0.03873000       0.40187900
    11  N          0.22790880       0.46127000       0.90187900
    12  N          0.27209120       0.96127000       0.59812100
    13  O          0.55102140       0.77804000       0.03834130
    14  O          0.94897860       0.27804000       0.46165870
    15  O          0.44897860       0.22196000       0.96165870
    16  O          0.05102140       0.72196000       0.53834130
    17  C          0.86636140       0.21374000       0.13747130
    18  C          0.63363860       0.71374000       0.36252870
    19  C          0.13363860       0.78626000       0.86252870
    20  C          0.36636140       0.28626000       0.63747130
    21  O          0.74461130       0.34133000       0.20177100
    22  O          0.75538870       0.84133000       0.29822900
    23  O          0.25538870       0.65867000       0.79822900
    24  O          0.24461130       0.15867000       0.70177100
    25  C          0.82401150       0.53464000       0.04175130
    26  C          0.67598850       0.03464000       0.45824870
    27  C          0.17598850       0.46536000       0.95824870
    28  C          0.32401150       0.96536000       0.54175130
    29  C          0.69745150       0.70414000       0.09902140
    30  C          0.80254850       0.20414000       0.40097860
    31  C          0.30254850       0.29586000       0.90097860
    32  C          0.19745150       0.79586000       0.59902140
    33  H          0.71330000       0.85500000       0.07860000
    34  H          0.78670000       0.35500000       0.42140000
    35  H          0.28670000       0.14500000       0.92140000
    36  H          0.21330000       0.64500000       0.57860000
    37  H          0.68760000       0.73070000       0.14970000
    38  H          0.81240000       0.23070000       0.35030000
    39  H          0.31240000       0.26930000       0.85030000
    40  H          0.18760000       0.76930000       0.64970000
    41  C          0.10239170       0.42344000       0.22234150
    42  C          0.39760830       0.92344000       0.27765850
    43  C          0.89760830       0.57656000       0.77765850
    44  C          0.60239170       0.07656000       0.72234150
    45  H          0.08880000       0.44590000       0.17150000
    46  H          0.41120000       0.94590000       0.32850000
    47  H          0.91120000       0.55410000       0.82850000
    48  H          0.58880000       0.05410000       0.67150000
    49  C          0.98592160       0.73184000       0.24568140
    50  C          0.51407840       0.23184000       0.25431860
    51  C          0.01407840       0.26816000       0.75431860
    52  C          0.48592160       0.76816000       0.74568140
    53  H          0.94290000       0.74810000       0.27780000
    54  H          0.55710000       0.24810000       0.22220000
    55  H          0.05710000       0.25190000       0.72220000
    56  H          0.44290000       0.75190000       0.77780000
    57  C          0.78919150       0.36214000       0.15173130
    58  C          0.71080850       0.86214000       0.34826870
    59  C          0.21080850       0.63786000       0.84826870
    60  C          0.28919150       0.13786000       0.65173130
    61  C          0.05648160       0.55544000       0.26949140
    62  C          0.44351840       0.05544000       0.23050860
    63  C          0.94351840       0.44456000       0.73050860
    64  C          0.55648160       0.94456000       0.76949140
    65  C          0.97119150       0.87544000       0.18624130
    66  C          0.52880850       0.37544000       0.31375870
    67  C          0.02880850       0.12456000       0.81375870
    68  C          0.47119150       0.62456000       0.68624130
    69  C          0.61125160       0.61195000       0.05499150
    70  C          0.88874840       0.11195000       0.44500850
    71  C          0.38874840       0.38805000       0.94500850
    72  C          0.11125160       0.88805000       0.55499150
    73  C          0.07872000       0.51366000       0.34434160
    74  C          0.42128000       0.01366000       0.15565840
    75  C          0.92128000       0.48634000       0.65565840
    76  C          0.57872000      -0.01366000       0.84434160
    77  H          0.04810000       0.59710000       0.37720000
    78  H          0.45190000       0.09710000       0.12280000
    79  H          0.95190000       0.40290000       0.62280000
    80  H          0.54810000       0.90290000       0.87720000
    81  C          0.14492000       0.35197000       0.37183180
    82  C          0.35508000       0.85197000       0.12816820
    83  C          0.85508000       0.64803000       0.62816820
    84  C          0.64492000       0.14803000       0.87183180
    85  H          0.16000000       0.33070000       0.42260000
    86  H          0.34000000       0.83070000       0.07740000
    87  H          0.84000000       0.66930000       0.57740000
    88  H          0.66000000       0.16930000       0.92260000
    89  O          0.60075120       0.40453000       0.03811120
    90  O          0.89924880       0.90453000       0.46188880
    91  O          0.39924880       0.59547000       0.96188880
    92  O          0.10075120       0.09547000       0.53811120
    93  C          0.16745180       0.26035000       0.24966170
    94  C          0.33254820       0.76035000       0.25033830
    95  C          0.83254820       0.73965000       0.75033830
    96  C          0.66745180       0.23965000       0.74966170
    97  H          0.19770000       0.17420000       0.21710000
    98  H          0.30230000       0.67420000       0.28290000
    99  H          0.80230000       0.82580000       0.78290000
   100  H          0.69770000       0.32580000       0.71710000
   101  C          0.03035160       0.88114000       0.12604140
   102  C          0.46964840       0.38114000       0.37395860
   103  C          0.96964840       0.11886000       0.87395860
   104  C          0.53035160       0.61886000       0.62604140
   105  H          0.08850000       0.80990000       0.14370000
   106  H          0.41150000       0.30990000       0.35630000
   107  H          0.91150000       0.19010000       0.85630000
   108  H          0.58850000       0.69010000       0.64370000
   109  H          0.03930000       0.04280000       0.11200000
   110  H          0.46070000       0.54280000       0.38800000
   111  H          0.96070000       0.95720000       0.88800000
   112  H          0.53930000       0.45720000       0.61200000
   113  H          0.00110000       0.79420000       0.08390000
   114  H          0.49890000       0.29420000       0.41610000
   115  H         -0.00110000       0.20580000       0.91610000
   116  H          0.50110000       0.70580000       0.58390000
   117  C          0.18832000       0.22266000       0.32393190
   118  C          0.31168000       0.72266000       0.17606810
   119  C          0.81168000       0.77734000       0.67606810
   120  C          0.68832000       0.27734000       0.82393190
   121  H          0.23180000       0.10960000       0.34190000
   122  H          0.26820000       0.60960000       0.15810000
   123  H          0.76820000       0.89040000       0.65810000
   124  H          0.73180000       0.39040000       0.84190000
   125  C          0.89644150       0.03894000       0.18419130
   126  C          0.60355850       0.53894000       0.31580870
   127  C          0.10355850       0.96106000       0.81580870
   128  C          0.39644150       0.46106000       0.68419130
   129  H          0.86240000       0.01950000       0.22280000
   130  H          0.63760000       0.51950000       0.27720000
   131  H          0.13760000      -0.01950000       0.77720000
   132  H          0.36240000       0.48050000       0.72280000
   133  H          0.50330000       0.72370000       0.01620000
   134  H         -0.00330000       0.22370000       0.48380000
   135  H          0.49670000       0.27630000       0.98380000
   136  H          0.00330000       0.77630000       0.51620000
