data_ZIPKOA
_symmetry_space_group_name_H-M    'P1'
_symmetry_Int_Tables_number       1
loop_
_symmetry_equiv_pos_site_id
_symmetry_equiv_pos_as_xyz
1 x,y,z
_cell_length_a                   8.2088815
_cell_length_b                   11.66392
_cell_length_c                   16.31073
_cell_angle_alpha                96.59858
_cell_angle_beta                 93.83938
_cell_angle_gamma                104.67808
loop_
_atom_site_label
_atom_site_type_symbol
_atom_site_fract_x
_atom_site_fract_y
_atom_site_fract_z
     1  S          0.63796100       0.94566600       0.58854400
     2  S          0.36203900       0.05433400       0.41145600
     3  S          0.43361100       0.10106600       0.65905500
     4  S          0.56638900       0.89893400       0.34094500
     5  O          0.72816000       0.13881190       0.84968120
     6  O          0.27184000       0.86118810       0.15031880
     7  O          0.72377000       0.32988160       0.86653120
     8  O          0.27623000       0.67011840       0.13346880
     9  O          0.05323000       0.14794160       0.70103120
    10  O          0.94677000       0.85205840       0.29896880
    11  N          0.77117000       0.14131160       0.68500110
    12  N          0.22883000       0.85868840       0.31499890
    13  C         -0.00244000       0.58663000       0.41731190
    14  C          0.00244000       0.41337000       0.58268810
    15  C          0.03974000       0.49393000       0.37148170
    16  C          0.96026000       0.50607000       0.62851830
    17  C          0.20294000       0.48753000       0.37435170
    18  C          0.79706000       0.51247000       0.62564830
    19  C          0.32794000       0.57473000       0.42327180
    20  C          0.67206000       0.42527000       0.57672820
    21  C          0.28594000       0.66783000       0.46934160
    22  C          0.71406000       0.33217000       0.53065840
    23  C          0.12114000       0.67712000       0.46868150
    24  C          0.87886000       0.32288000       0.53131850
    25  C          0.09184000       0.77893000       0.52066160
    26  C          0.90816000       0.22107000       0.47933840
    27  C          0.95046000       0.81372000       0.53505150
    28  C          0.04954000       0.18628000       0.46494850
    29  C          0.97156000       0.92362000       0.59066160
    30  C          0.02844000       0.07638000       0.40933840
    31  C          0.85726000       0.98242000       0.61502150
    32  C          0.14274000       0.01758000       0.38497850
    33  C          0.61547000       0.07192000       0.64890140
    34  C          0.38453000       0.92808000       0.35109860
    35  C          0.90926000       0.09652000       0.67073150
    36  C          0.09074000       0.90348000       0.32926850
    37  C          0.78546000       0.25292000       0.73841140
    38  C          0.21454000       0.74708000       0.26158860
    39  C          0.74246000       0.23193000       0.82361150
    40  C          0.25754000       0.76807000       0.17638850
    41  C          0.77556000       0.74643000       0.49763000
    42  C          0.22444000       0.25357000       0.50237000
    43  H          0.88530000       0.58960000       0.41440000
    44  H          0.11470000       0.41040000       0.58560000
    45  H          0.95580000       0.43500000       0.33820000
    46  H          0.04420000       0.56500000       0.66180000
    47  H          0.23020000       0.42430000       0.34330000
    48  H          0.76980000       0.57570000       0.65670000
    49  H          0.43980000       0.57070000       0.42520000
    50  H          0.56020000       0.42930000       0.57480000
    51  H          0.37120000       0.72630000       0.50200000
    52  H          0.62880000       0.27370000       0.49800000
    53  H          0.18980000       0.82980000       0.54950000
    54  H          0.81020000       0.17020000       0.45050000
    55  H          0.08230000       0.95970000       0.61340000
    56  H          0.91770000       0.04030000       0.38660000
    57  H          0.71010000       0.29500000       0.71460000
    58  H          0.28990000       0.70500000       0.28540000
    59  H          0.90030000       0.30310000       0.74140000
    60  H          0.09970000       0.69690000       0.25860000
    61  H          0.74810000       0.66770000       0.51380000
    62  H          0.25190000       0.33230000       0.48620000
    63  H          0.77110000       0.74020000       0.43830000
    64  H          0.22890000       0.25980000       0.56170000
    65  H          0.69570000       0.78820000       0.51690000
    66  H          0.30430000       0.21180000       0.48310000
    67  H          0.69460000       0.31790000       0.91690000
    68  H          0.30540000       0.68210000       0.08310000
    69  S          0.37127100       0.83410600       0.78858400
    70  S          0.62872900       0.16589400       0.21141600
    71  S          0.44589110       0.63719700       0.67832500
    72  S          0.55410890       0.36280300       0.32167500
    73  O          0.14843000       0.44390170       0.80281140
    74  O          0.85157000       0.55609830       0.19718860
    75  O          0.32493000       0.32960160       0.78099150
    76  O          0.67507000       0.67039840       0.21900850
    77  O          0.36823000       0.66714160       0.97761110
    78  O          0.63177000       0.33285840       0.02238890
    79  N          0.41503000       0.64436170       0.84141120
    80  N          0.58497000       0.35563830       0.15858880
    81  C          0.14944000       0.19183000       0.12912000
    82  C          0.85056000       0.80817000       0.87088000
    83  C          0.09935000       0.29314000       0.15793000
    84  C          0.90065000       0.70686000       0.84207000
    85  C          0.08215000       0.37424000       0.10624000
    86  C          0.91785000       0.62576000       0.89376000
    87  C          0.11276000       0.35344000       0.02744000
    88  C          0.88724000       0.64656000       0.97256000
    89  C          0.16116000       0.25314000      -0.00337000
    90  C          0.83884000       0.74686000       0.00337000
    91  C          0.17964000       0.16893000       0.04732180
    92  C          0.82036000       0.83107000       0.95267820
    93  C          0.22644000       0.05853000       0.02263170
    94  C          0.77356000       0.94147000       0.97736830
    95  C          0.26484000       0.00893000       0.95094160
    96  C          0.73516000      -0.00893000       0.04905840
    97  C          0.30374000       0.89532000       0.95251160
    98  C          0.69626000       0.10468000       0.04748840
    99  C          0.34584000       0.82072000       0.89315150
   100  C          0.65416000       0.17928000       0.10684850
   101  C          0.41404000       0.69603000       0.76970160
   102  C          0.58596000       0.30397000       0.23029840
   103  C          0.37524000       0.70682000       0.91166150
   104  C          0.62476000       0.29318000       0.08833850
   105  C          0.44454000       0.52652000       0.84178160
   106  C          0.55546000       0.47348000       0.15821840
   107  C          0.28764000       0.43033000       0.80615150
   108  C          0.71236000       0.56967000       0.19384850
   109  C          0.26958000       0.06284000       0.87233000
   110  C          0.73042000       0.93716000       0.12767000
   111  H          0.16300000       0.13840000       0.16560000
   112  H          0.83700000       0.86160000       0.83440000
   113  H          0.07720000       0.30570000       0.21300000
   114  H          0.92280000       0.69430000       0.78700000
   115  H          0.04970000       0.44240000       0.12560000
   116  H          0.95030000       0.55760000       0.87440000
   117  H          0.10110000       0.40850000      -0.00810000
   118  H          0.89890000       0.59150000       0.00810000
   119  H          0.18150000       0.24200000       0.94120000
   120  H          0.81850000       0.75800000       0.05880000
   121  H          0.23040000       0.01310000       0.06560000
   122  H          0.76960000      -0.01310000       0.93440000
   123  H          0.29880000       0.86850000       0.00410000
   124  H          0.70120000       0.13150000      -0.00410000
   125  H          0.47570000       0.51540000       0.89820000
   126  H          0.52430000       0.48460000       0.10180000
   127  H          0.53740000       0.52040000       0.80920000
   128  H          0.46260000       0.47960000       0.19080000
   129  H          0.32490000       0.02160000       0.83330000
   130  H          0.67510000       0.97840000       0.16670000
   131  H          0.33050000       0.14580000       0.88340000
   132  H          0.66950000       0.85420000       0.11660000
   133  H          0.15600000       0.05590000       0.84950000
   134  H          0.84400000       0.94410000       0.15050000
   135  H          0.23930000       0.28020000       0.75850000
   136  H          0.76070000       0.71980000       0.24150000
