data_ZOGQAN05
_symmetry_space_group_name_H-M    'P1'
_symmetry_Int_Tables_number       1
loop_
_symmetry_equiv_pos_site_id
_symmetry_equiv_pos_as_xyz
1 x,y,z
_cell_length_a                   20.83603
_cell_length_b                   5.274601
_cell_length_c                   14.09712
_cell_angle_alpha                90.0
_cell_angle_beta                 104.45701
_cell_angle_gamma                90.0
loop_
_atom_site_label
_atom_site_type_symbol
_atom_site_fract_x
_atom_site_fract_y
_atom_site_fract_z
     1  O          0.81007500       0.60282000       0.22845800
     2  O          0.18992500       0.10282000       0.27154200
     3  O          0.18992500       0.39718000       0.77154200
     4  O          0.81007500       0.89718000       0.72845800
     5  O          0.81247500      -0.02368000       0.29337800
     6  O          0.18752500       0.47632000       0.20662200
     7  O          0.18752500       0.02368000       0.70662200
     8  O          0.81247500       0.52368000       0.79337800
     9  O          0.96491600       0.57052000       0.20348100
    10  O          0.03508400       0.07052000       0.29651900
    11  O          0.03508400       0.42948000       0.79651900
    12  O          0.96491600       0.92948000       0.70348100
    13  O          0.01989600       0.42423000       0.10337100
    14  O          0.98010400       0.92423000       0.39662900
    15  O          0.98010400       0.57577000       0.89662900
    16  O          0.01989600       0.07577000       0.60337100
    17  N          0.69744600       0.87052000       0.08211800
    18  N          0.30255400       0.37052000       0.41788200
    19  N          0.30255400       0.12948000       0.91788200
    20  N          0.69744600       0.62948000       0.58211800
    21  N          0.82012600       0.83212000       0.22873800
    22  N          0.17987400       0.33212000       0.27126200
    23  N          0.17987400       0.16788000       0.77126200
    24  N          0.82012600       0.66788000       0.72873800
    25  N          0.97264700       0.42113000       0.14122100
    26  N          0.02735300       0.92113000       0.35877900
    27  N          0.02735300       0.57887000       0.85877900
    28  N          0.97264700       0.07887000       0.64122100
    29  N          0.56525600       0.12122000       0.17702900
    30  N          0.43474400       0.62122000       0.32297100
    31  N          0.43474400       0.87878000       0.82297100
    32  N          0.56525600       0.37878000       0.67702900
    33  C          0.63491700       0.90803000       0.08969100
    34  C          0.36508300       0.40803000       0.41030900
    35  C          0.36508300       0.09197000       0.91030900
    36  C          0.63491700       0.59197000       0.58969100
    37  C          0.58149700       0.76493000       0.03705100
    38  C          0.41850300       0.26493000       0.46294900
    39  C          0.41850300       0.23507000       0.96294900
    40  C          0.58149700       0.73507000       0.53705100
    41  H          0.53780000       0.79830000       0.04260000
    42  H          0.46220000       0.29830000       0.45740000
    43  H          0.46220000       0.20170000       0.95740000
    44  H          0.53780000       0.70170000       0.54260000
    45  C          0.59349700       0.57363000       0.97670890
    46  C          0.40650300       0.07363000       0.52329110
    47  C          0.40650300       0.42637000       0.02329110
    48  C          0.59349700       0.92637000       0.47670890
    49  H          0.55800000       0.47240000       0.94050000
    50  H          0.44200000       0.97240000       0.55950000
    51  H          0.44200000       0.52760000       0.05950000
    52  H          0.55800000       0.02760000       0.44050000
    53  C          0.65760700       0.53073000       0.96948900
    54  C          0.34239300       0.03073000       0.53051100
    55  C          0.34239300       0.46927000       0.03051100
    56  C          0.65760700       0.96927000       0.46948900
    57  H          0.66700000       0.39990000       0.92860000
    58  H          0.33300000       0.89990000       0.57140000
    59  H          0.33300000       0.60010000       0.07140000
    60  H          0.66700000       0.10010000       0.42860000
    61  C          0.70826700       0.68423000       0.02375100
    62  C          0.29173300       0.18423000       0.47624900
    63  C          0.29173300       0.31577000       0.97624900
    64  C          0.70826700       0.81577000       0.52375100
    65  C          0.77891700       0.63003000       0.01972110
    66  C          0.22108300       0.13003000       0.48027890
    67  C          0.22108300       0.36997000       0.98027890
    68  C          0.77891700       0.86997000       0.51972110
    69  C          0.82868700       0.83873000       0.05481100
    70  C          0.17131300       0.33873000       0.44518900
    71  C          0.17131300       0.16127000       0.94518900
    72  C          0.82868700       0.66127000       0.55481100
    73  C          0.84580600       0.93993000       0.14952100
    74  C          0.15419400       0.43993000       0.35047900
    75  C          0.15419400       0.06007000       0.85047900
    76  C          0.84580600       0.56007000       0.64952100
    77  C          0.89044700       0.13543000       0.17801100
    78  C          0.10955300       0.63543000       0.32198900
    79  C          0.10955300       0.86457000       0.82198900
    80  C          0.89044700       0.36457000       0.67801100
    81  H          0.89860000       0.20710000       0.24170000
    82  H          0.10140000       0.70710000       0.25830000
    83  H          0.10140000       0.79290000       0.75830000
    84  H          0.89860000       0.29290000       0.74170000
    85  C          0.92269700       0.22213000       0.11014110
    86  C          0.07730300       0.72213000       0.38985890
    87  C          0.07730300       0.77787000       0.88985890
    88  C          0.92269700       0.27787000       0.61014110
    89  C          0.90986800       0.12843000       0.01600110
    90  C          0.09013200       0.62843000       0.48399890
    91  C          0.09013200       0.87157000       0.98399890
    92  C          0.90986800       0.37157000       0.51600110
    93  H          0.93340000       0.18930000       0.97100000
    94  H          0.06660000       0.68930000       0.52900000
    95  H          0.06660000       0.81070000       0.02900000
    96  H          0.93340000       0.31070000       0.47100000
    97  C          0.86145700       0.94213000       0.98875890
    98  C          0.13854300       0.44213000       0.51124110
    99  C          0.13854300       0.05787000       0.01124110
   100  C          0.86145700       0.55787000       0.48875890
   101  H          0.85030000       0.88340000       0.92300000
   102  H          0.14970000       0.38340000       0.57700000
   103  H          0.14970000       0.11660000       0.07700000
   104  H          0.85030000       0.61660000       0.42300000
   105  C          0.62558700       0.10973000       0.15857100
   106  C          0.37441300       0.60973000       0.34142900
   107  C          0.37441300       0.89027000       0.84142900
   108  C          0.62558700       0.39027000       0.65857100
   109  C          0.67691700       0.27513000       0.20159100
   110  C          0.32308300       0.77513000       0.29840900
   111  C          0.32308300       0.72487000       0.79840900
   112  C          0.67691700       0.22487000       0.70159100
   113  H          0.71890000       0.26210000       0.18690000
   114  H          0.28110000       0.76210000       0.31310000
   115  H          0.28110000       0.73790000       0.81310000
   116  H          0.71890000       0.23790000       0.68690000
   117  C          0.66582700       0.45803000       0.26585110
   118  C          0.33417300       0.95803000       0.23414890
   119  C          0.33417300       0.54197000       0.73414890
   120  C          0.66582700       0.04197000       0.76585110
   121  H          0.69990000       0.57320000       0.29580000
   122  H          0.30010000       0.07320000       0.20420000
   123  H          0.30010000       0.42680000       0.70420000
   124  H          0.69990000       0.92680000       0.79580000
   125  C          0.60399700       0.47043000       0.28583110
   126  C          0.39600300       0.97043000       0.21416890
   127  C          0.39600300       0.52957000       0.71416890
   128  C          0.60399700       0.02957000       0.78583110
   129  H          0.59490000       0.59330000       0.33000000
   130  H          0.40510000       0.09330000       0.17000000
   131  H          0.40510000       0.40670000       0.67000000
   132  H          0.59490000       0.90670000       0.83000000
   133  C          0.55597700       0.29943000       0.23989110
   134  C          0.44402300       0.79943000       0.26010890
   135  C          0.44402300       0.70057000       0.76010890
   136  C          0.55597700       0.20057000       0.73989110
   137  H          0.51370000       0.30900000       0.25380000
   138  H          0.48630000       0.80900000       0.24620000
   139  H          0.48630000       0.69100000       0.74620000
   140  H          0.51370000       0.19100000       0.75380000
   141  H          0.79350000       0.47490000       0.05550000
   142  H          0.20650000      -0.02510000       0.44450000
   143  H          0.20650000       0.52510000       0.94450000
   144  H          0.79350000       0.02510000       0.55550000
   145  H          0.77880000       0.57990000       0.95320000
   146  H          0.22120000       0.07990000       0.54680000
   147  H          0.22120000       0.42010000       0.04680000
   148  H          0.77880000       0.92010000       0.45320000
