data_ZOGQAN
_symmetry_space_group_name_H-M    'P1'
_symmetry_Int_Tables_number       1
loop_
_symmetry_equiv_pos_site_id
_symmetry_equiv_pos_as_xyz
1 x,y,z
_cell_length_a                   8.3403
_cell_length_b                   12.7404
_cell_length_c                   14.4084
_cell_angle_alpha                90.0
_cell_angle_beta                 92.132
_cell_angle_gamma                90.0
loop_
_atom_site_label
_atom_site_type_symbol
_atom_site_fract_x
_atom_site_fract_y
_atom_site_fract_z
     1  N          0.86162000       0.43761000       0.82171000
     2  N          0.13838000       0.93761000       0.67829000
     3  N          0.13838000       0.56239000       0.17829000
     4  N          0.86162000       0.06239000       0.32171000
     5  C          0.81602000       0.35132000       0.77341000
     6  C          0.18398000       0.85132000       0.72659000
     7  C          0.18398000       0.64868000       0.22659000
     8  C          0.81602000       0.14868000       0.27341000
     9  C          0.85653000       0.33662000       0.68202000
    10  C          0.14347000       0.83662000       0.81798000
    11  C          0.14347000       0.66338000       0.31798000
    12  C          0.85653000       0.16338000       0.18202000
    13  C          0.94313000       0.41242000       0.63802000
    14  C          0.05687000       0.91242000       0.86198000
    15  C          0.05687000       0.58758000       0.36198000
    16  C          0.94313000       0.08758000       0.13802000
    17  C         -0.01168000       0.50152000       0.68692000
    18  C          0.01168000       0.00152000       0.81308000
    19  C          0.01168000       0.49848000       0.31308000
    20  C         -0.01168000      -0.00152000       0.18692000
    21  C          0.94542000       0.50982000       0.77802000
    22  C          0.05458000       0.00982000       0.72198000
    23  C          0.05458000       0.49018000       0.22198000
    24  C          0.94542000      -0.00982000       0.27802000
    25  C          0.71682000       0.27402000       0.82331000
    26  C          0.28318000       0.77402000       0.67669000
    27  C          0.28318000       0.72598000       0.17669000
    28  C          0.71682000       0.22598000       0.32331000
    29  N          0.65422000       0.19451000       0.77251000
    30  N          0.34578000       0.69451000       0.72749000
    31  N          0.34578000       0.80549000       0.22749000
    32  N          0.65422000       0.30549000       0.27251000
    33  C          0.68583000       0.28682000       0.91632000
    34  C          0.31417000       0.78682000       0.58368000
    35  C          0.31417000       0.71318000       0.08368000
    36  C          0.68583000       0.21318000       0.41632000
    37  C          0.58693000       0.21712000       0.95832000
    38  C          0.41307000       0.71712000       0.54168000
    39  C          0.41307000       0.78288000       0.04168000
    40  C          0.58693000       0.28288000       0.45832000
    41  C          0.52153000       0.13572000       0.90682000
    42  C          0.47847000       0.63572000       0.59318000
    43  C          0.47847000       0.86428000       0.09318000
    44  C          0.52153000       0.36428000       0.40682000
    45  C          0.55842000       0.12622000       0.81441000
    46  C          0.44158000       0.62622000       0.68559000
    47  C          0.44158000       0.87378000       0.18559000
    48  C          0.55842000       0.37378000       0.31441000
    49  C          0.48233000       0.04122000       0.75422000
    50  C          0.51767000       0.54122000       0.74578000
    51  C          0.51767000       0.95878000       0.24578000
    52  C          0.48233000       0.45878000       0.25422000
    53  C          0.59822000       0.97658000       0.70001000
    54  C          0.40178000       0.47658000       0.79999000
    55  C          0.40178000       0.02342000       0.29999000
    56  C          0.59822000       0.52342000       0.20001000
    57  C          0.67152000       0.88298000       0.73061000
    58  C          0.32848000       0.38298000       0.76939000
    59  C          0.32848000       0.11702000       0.26939000
    60  C          0.67152000       0.61702000       0.23061000
    61  C          0.76622000       0.82228000       0.67561000
    62  C          0.23378000       0.32228000       0.82439000
    63  C          0.23378000       0.17772000       0.32439000
    64  C          0.76622000       0.67772000       0.17561000
    65  C          0.79642000       0.85898000       0.58881000
    66  C          0.20358000       0.35898000       0.91119000
    67  C          0.20358000       0.14102000       0.41119000
    68  C          0.79642000       0.64102000       0.08881000
    69  C          0.73333000       0.95148000       0.55501000
    70  C          0.26667000       0.45148000       0.94499000
    71  C          0.26667000       0.04852000       0.44499000
    72  C          0.73333000       0.54852000       0.05501000
    73  C          0.63392000       0.00772000       0.61042000
    74  C          0.36608000       0.50772000       0.88958000
    75  C          0.36608000      -0.00772000       0.38958000
    76  C          0.63392000       0.49228000       0.11042000
    77  N          0.65552000       0.84519000       0.82651000
    78  N          0.34448000       0.34519000       0.67349000
    79  N          0.34448000       0.15481000       0.17349000
    80  N          0.65552000       0.65481000       0.32651000
    81  O          0.62172000       0.90849000       0.88581000
    82  O          0.37828000       0.40849000       0.61419000
    83  O          0.37828000       0.09151000       0.11419000
    84  O          0.62172000       0.59151000       0.38581000
    85  O          0.68192000       0.75309000       0.84311000
    86  O          0.31808000       0.25309000       0.65689000
    87  O          0.31808000       0.24691000       0.15689000
    88  O          0.68192000       0.74691000       0.34311000
    89  N          0.90432000       0.79749000       0.53181000
    90  N          0.09568000       0.29749000       0.96819000
    91  N          0.09568000       0.20251000       0.46819000
    92  N          0.90432000       0.70251000       0.03181000
    93  O          0.93432000       0.70729000       0.55551000
    94  O          0.06568000       0.20729000       0.94449000
    95  O          0.06568000       0.29271000       0.44449000
    96  O          0.93432000       0.79271000       0.05551000
    97  O          0.96052000       0.83939000       0.46411000
    98  O          0.03948000       0.33939000       0.03589000
    99  O          0.03948000       0.16061000       0.53589000
   100  O          0.96052000       0.66061000       0.96411000
   101  H          0.82450000       0.27450000       0.64980000
   102  H          0.17550000       0.77450000       0.85020000
   103  H          0.17550000       0.72550000       0.35020000
   104  H          0.82450000       0.22550000       0.14980000
   105  H          0.97130000       0.40360000       0.57510000
   106  H          0.02870000       0.90360000       0.92490000
   107  H          0.02870000       0.59640000       0.42490000
   108  H          0.97130000       0.09640000       0.07510000
   109  H          0.04730000       0.55560000       0.65840000
   110  H          0.95270000       0.05560000       0.84160000
   111  H          0.95270000       0.44440000       0.34160000
   112  H          0.04730000       0.94440000       0.15840000
   113  H          0.97780000       0.57070000       0.81160000
   114  H          0.02220000       0.07070000       0.68840000
   115  H          0.02220000       0.42930000       0.18840000
   116  H          0.97780000       0.92930000       0.31160000
   117  H          0.73260000       0.34340000       0.95060000
   118  H          0.26740000       0.84340000       0.54940000
   119  H          0.26740000       0.65660000       0.04940000
   120  H          0.73260000       0.15660000       0.45060000
   121  H          0.56380000       0.22470000       0.02190000
   122  H          0.43620000       0.72470000       0.47810000
   123  H          0.43620000       0.77530000       0.97810000
   124  H          0.56380000       0.27530000       0.52190000
   125  H          0.45180000       0.08660000       0.93430000
   126  H          0.54820000       0.58660000       0.56570000
   127  H          0.54820000       0.91340000       0.06570000
   128  H          0.45180000       0.41340000       0.43430000
   129  H          0.80900000       0.75730000       0.69720000
   130  H          0.19100000       0.25730000       0.80280000
   131  H          0.19100000       0.24270000       0.30280000
   132  H          0.80900000       0.74270000       0.19720000
   133  H          0.75780000       0.97600000       0.49480000
   134  H          0.24220000       0.47600000       0.00520000
   135  H          0.24220000       0.02400000       0.50520000
   136  H          0.75780000       0.52400000      -0.00520000
   137  H          0.58720000       0.07060000       0.58640000
   138  H          0.41280000       0.57060000       0.91360000
   139  H          0.41280000       0.92940000       0.41360000
   140  H          0.58720000       0.42940000       0.08640000
   141  H          0.39960000       0.07980000       0.70550000
   142  H          0.60040000       0.57980000       0.79450000
   143  H          0.60040000       0.92020000       0.29450000
   144  H          0.39960000       0.42020000       0.20550000
   145  H          0.41370000       0.98570000       0.79100000
   146  H          0.58630000       0.48570000       0.70900000
   147  H          0.58630000       0.01430000       0.20900000
   148  H          0.41370000       0.51430000       0.29100000
