data_ZOGQAN01
_symmetry_space_group_name_H-M    'P1'
_symmetry_Int_Tables_number       1
loop_
_symmetry_equiv_pos_site_id
_symmetry_equiv_pos_as_xyz
1 x,y,z
_cell_length_a                   14.0514
_cell_length_b                   5.1592
_cell_length_c                   42.0179
_cell_angle_alpha                90.0
_cell_angle_beta                 90.0
_cell_angle_gamma                90.0
loop_
_atom_site_label
_atom_site_type_symbol
_atom_site_fract_x
_atom_site_fract_y
_atom_site_fract_z
     1  C          0.42486000       0.57620000       0.79400000
     2  C          0.57514000       0.42380000       0.29400000
     3  C          0.07514000       0.07620000       0.29400000
     4  C          0.92486000       0.92380000       0.79400000
     5  C          0.38001000       0.74202000       0.81551000
     6  C          0.61999000       0.25798000       0.31551000
     7  C          0.11999000       0.24202000       0.31551000
     8  C          0.88001000       0.75798000       0.81551000
     9  C          0.32041000       0.92922000       0.80651000
    10  C          0.67959000       0.07078000       0.30651000
    11  C          0.17959000       0.42922000       0.30651000
    12  C          0.82041000       0.57078000       0.80651000
    13  C          0.29911000       0.94022000       0.77291000
    14  C          0.70089000       0.05978000       0.27291000
    15  C          0.20089000       0.44022000       0.27291000
    16  C          0.79911000       0.55978000       0.77291000
    17  C          0.33651000       0.75942000       0.75351000
    18  C          0.66349000       0.24058000       0.25351000
    19  C          0.16349000       0.25942000       0.25351000
    20  C          0.83651000       0.74058000       0.75351000
    21  N          0.40551000       0.57612000       0.76341000
    22  N          0.59449000       0.42388000       0.26341000
    23  N          0.09449000       0.07612000       0.26341000
    24  N          0.90551000       0.92388000       0.76341000
    25  C          0.49961000       0.37172000       0.80411000
    26  C          0.50039000       0.62828000       0.30411000
    27  C          0.00039000       0.87172000       0.30411000
    28  C         -0.00039000       0.12828000       0.80411000
    29  C          0.55391000       0.24582000       0.78201000
    30  C          0.44609000       0.75418000       0.28201000
    31  C          0.94609000       0.74582000       0.28201000
    32  C          0.05391000       0.25418000       0.78201000
    33  C          0.61911000       0.06142000       0.79301000
    34  C          0.38089000       0.93858000       0.29301000
    35  C          0.88089000       0.56142000       0.29301000
    36  C          0.11911000       0.43858000       0.79301000
    37  C          0.62621000       0.01532000       0.82581000
    38  C          0.37379000      -0.01532000       0.32581000
    39  C          0.87379000       0.51532000       0.32581000
    40  C          0.12621000       0.48468000       0.82581000
    41  C          0.56611000       0.15202000       0.84621000
    42  C          0.43389000       0.84798000       0.34621000
    43  C          0.93389000       0.65202000       0.34621000
    44  C          0.06611000       0.34798000       0.84621000
    45  N          0.50441000       0.32872000       0.83611000
    46  N          0.49559000       0.67128000       0.33611000
    47  N         -0.00441000       0.82872000       0.33611000
    48  N          0.00441000       0.17128000       0.83611000
    49  C          0.57061000       0.07692000       0.88131000
    50  C          0.42939000       0.92308000       0.38131000
    51  C          0.92939000       0.57692000       0.38131000
    52  C          0.07061000       0.42308000       0.88131000
    53  C          0.53891000       0.29302000       0.90381000
    54  C          0.46109000       0.70698000       0.40381000
    55  C          0.96109000       0.79302000       0.40381000
    56  C          0.03891000       0.20698000       0.90381000
    57  C          0.44711000       0.39542000       0.90701000
    58  C          0.55289000       0.60458000       0.40701000
    59  C          0.05289000       0.89542000       0.40701000
    60  C          0.94711000       0.10458000       0.90701000
    61  C          0.42111000       0.58922000       0.92711000
    62  C          0.57889000       0.41078000       0.42711000
    63  C          0.07889000       0.08922000       0.42711000
    64  C          0.92111000       0.91078000       0.92711000
    65  C          0.49111000       0.69512000       0.94571000
    66  C          0.50889000       0.30488000       0.44571000
    67  C          0.00889000       0.19512000       0.44571000
    68  C         -0.00889000       0.80488000       0.94571000
    69  C          0.58811000       0.60832000       0.94431000
    70  C          0.41189000       0.39168000       0.44431000
    71  C          0.91189000       0.10832000       0.44431000
    72  C          0.08811000       0.89168000       0.94431000
    73  C          0.60881000       0.41682000       0.92261000
    74  C          0.39119000       0.58318000       0.42261000
    75  C          0.89119000       0.91682000       0.42261000
    76  C          0.10881000       0.08318000       0.92261000
    77  N          0.36121000       0.27092000       0.88701000
    78  N          0.63879000       0.72908000       0.38701000
    79  N          0.13879000       0.77092000       0.38701000
    80  N          0.86121000       0.22908000       0.88701000
    81  O          0.30211000       0.42992000       0.88081000
    82  O          0.69789000       0.57008000       0.38081000
    83  O          0.19789000       0.92992000       0.38081000
    84  O          0.80211000       0.07008000       0.88081000
    85  O          0.36511000       0.04802000       0.88381000
    86  O          0.63489000       0.95198000       0.38381000
    87  O          0.13489000       0.54802000       0.38381000
    88  O          0.86511000       0.45198000       0.88381000
    89  N          0.46601000       0.90972000       0.96821000
    90  N          0.53399000       0.09028000       0.46821000
    91  N          0.03399000       0.40972000       0.46821000
    92  N          0.96601000       0.59028000       0.96821000
    93  O          0.39431000       0.01972000       0.96311000
    94  O          0.60569000      -0.01972000       0.46311000
    95  O          0.10569000       0.51972000       0.46311000
    96  O          0.89431000       0.48028000       0.96311000
    97  O          0.52191000       0.93752000       0.99021000
    98  O          0.47809000       0.06248000       0.49021000
    99  O          0.97809000       0.43752000       0.49021000
   100  O          0.02191000       0.56248000       0.99021000
   101  H          0.39201000       0.72162000       0.83711000
   102  H          0.60799000       0.27838000       0.33711000
   103  H          0.10799000       0.22162000       0.33711000
   104  H          0.89201000       0.77838000       0.83711000
   105  H          0.29411000       0.04552000       0.82091000
   106  H          0.70589000       0.95448000       0.32091000
   107  H          0.20589000       0.54552000       0.32091000
   108  H          0.79411000       0.45448000       0.82091000
   109  H          0.26021000       0.07022000       0.76481000
   110  H          0.73979000       0.92978000       0.26481000
   111  H          0.23979000       0.57022000       0.26481000
   112  H          0.76021000       0.42978000       0.76481000
   113  H          0.31601000       0.75442000       0.73251000
   114  H          0.68399000       0.24558000       0.23251000
   115  H          0.18399000       0.25442000       0.23251000
   116  H          0.81601000       0.74558000       0.73251000
   117  H          0.54761000       0.28142000       0.76041000
   118  H          0.45239000       0.71858000       0.26041000
   119  H          0.95239000       0.78142000       0.26041000
   120  H          0.04761000       0.21858000       0.76041000
   121  H          0.65731000       0.97068000       0.77881000
   122  H          0.34269000       0.02932000       0.27881000
   123  H          0.84269000       0.47068000       0.27881000
   124  H          0.15731000       0.52932000       0.77881000
   125  H          0.66991000       0.89638000       0.83371000
   126  H          0.33009000       0.10362000       0.33371000
   127  H          0.83009000       0.39638000       0.33371000
   128  H          0.16991000       0.60362000       0.83371000
   129  H          0.63551000       0.02832000       0.88651000
   130  H          0.36449000       0.97168000       0.38651000
   131  H          0.86449000       0.52832000       0.38651000
   132  H          0.13551000       0.47168000       0.88651000
   133  H          0.53061000       0.92628000       0.88471000
   134  H          0.46939000       0.07372000       0.38471000
   135  H          0.96939000       0.42628000       0.38471000
   136  H          0.03061000       0.57372000       0.88471000
   137  H          0.35861000       0.64772000       0.92811000
   138  H          0.64139000       0.35228000       0.42811000
   139  H          0.14139000       0.14772000       0.42811000
   140  H          0.85861000       0.85228000       0.92811000
   141  H          0.63481000       0.67832000       0.95741000
   142  H          0.36519000       0.32168000       0.45741000
   143  H          0.86519000       0.17832000       0.45741000
   144  H          0.13481000       0.82168000       0.95741000
   145  H          0.67191000       0.36632000       0.92021000
   146  H          0.32809000       0.63368000       0.42021000
   147  H          0.82809000       0.86632000       0.42021000
   148  H          0.17191000       0.13368000       0.92021000
   149  C          0.32421000       0.08072000       0.17261000
   150  C          0.67579000       0.91928000       0.67261000
   151  C          0.17579000       0.58072000       0.67261000
   152  C          0.82421000       0.41928000       0.17261000
   153  C          0.36521000       0.24242000       0.14961000
   154  C          0.63479000       0.75758000       0.64961000
   155  C          0.13479000       0.74242000       0.64961000
   156  C          0.86521000       0.25758000       0.14961000
   157  C          0.43211000       0.43112000       0.16301000
   158  C          0.56789000       0.56888000       0.66301000
   159  C          0.06789000       0.93112000       0.66301000
   160  C          0.93211000       0.06888000       0.16301000
   161  C          0.45391000       0.43582000       0.19421000
   162  C          0.54609000       0.56418000       0.69421000
   163  C          0.04609000       0.93582000       0.69421000
   164  C          0.95391000       0.06418000       0.19421000
   165  C          0.39611000       0.26442000       0.21441000
   166  C          0.60389000       0.73558000       0.71441000
   167  C          0.10389000       0.76442000       0.71441000
   168  C          0.89611000       0.23558000       0.21441000
   169  N          0.34301000       0.08732000       0.20421000
   170  N          0.65699000       0.91268000       0.70421000
   171  N          0.15699000       0.58732000       0.70421000
   172  N          0.84301000       0.41268000       0.20421000
   173  C          0.25801000       0.88392000       0.16241000
   174  C          0.74199000       0.11608000       0.66241000
   175  C          0.24199000       0.38392000       0.66241000
   176  C          0.75801000       0.61608000       0.16241000
   177  C          0.19931000       0.75862000       0.18461000
   178  C          0.80069000       0.24138000       0.68461000
   179  C          0.30069000       0.25862000       0.68461000
   180  C          0.69931000       0.74138000       0.18461000
   181  C          0.13471000       0.57082000       0.17361000
   182  C          0.86529000       0.42918000       0.67361000
   183  C          0.36529000       0.07082000       0.67361000
   184  C          0.63471000       0.92918000       0.17361000
   185  C          0.13101000       0.52392000       0.14071000
   186  C          0.86899000       0.47608000       0.64071000
   187  C          0.36899000       0.02392000       0.64071000
   188  C          0.63101000      -0.02392000       0.14071000
   189  C          0.19101000       0.65222000       0.12071000
   190  C          0.80899000       0.34778000       0.62071000
   191  C          0.30899000       0.15222000       0.62071000
   192  C          0.69101000       0.84778000       0.12071000
   193  N          0.25241000       0.83242000       0.13051000
   194  N          0.74759000       0.16758000       0.63051000
   195  N          0.24759000       0.33242000       0.63051000
   196  N          0.75241000       0.66758000       0.13051000
   197  C          0.19231000       0.58102000       0.08561000
   198  C          0.80769000       0.41898000       0.58561000
   199  C          0.30769000       0.08102000       0.58561000
   200  C          0.69231000       0.91898000       0.08561000
   201  C          0.22131000       0.79782000       0.06341000
   202  C          0.77869000       0.20218000       0.56341000
   203  C          0.27869000       0.29782000       0.56341000
   204  C          0.72131000       0.70218000       0.06341000
   205  C          0.31421000       0.89092000       0.06081000
   206  C          0.68579000       0.10908000       0.56081000
   207  C          0.18579000       0.39092000       0.56081000
   208  C          0.81421000       0.60908000       0.06081000
   209  C          0.33541000       0.08582000       0.04041000
   210  C          0.66459000       0.91418000       0.54041000
   211  C          0.16459000       0.58582000       0.54041000
   212  C          0.83541000       0.41418000       0.04041000
   213  C          0.26511000       0.18272000       0.02161000
   214  C          0.73489000       0.81728000       0.52161000
   215  C          0.23489000       0.68272000       0.52161000
   216  C          0.76511000       0.31728000       0.02161000
   217  C          0.17571000       0.11062000       0.02241000
   218  C          0.82429000       0.88938000       0.52241000
   219  C          0.32429000       0.61062000       0.52241000
   220  C          0.67571000       0.38938000       0.02241000
   221  C          0.15471000       0.91072000       0.04391000
   222  C          0.84529000       0.08928000       0.54391000
   223  C          0.34529000       0.41072000       0.54391000
   224  C          0.65471000       0.58928000       0.04391000
   225  N          0.38521000       0.78742000       0.07491000
   226  N          0.61479000       0.21258000       0.57491000
   227  N          0.11479000       0.28742000       0.57491000
   228  N          0.88521000       0.71258000       0.07491000
   229  O          0.45451000       0.92472000       0.08711000
   230  O          0.54549000       0.07528000       0.58711000
   231  O          0.04549000       0.42472000       0.58711000
   232  O          0.95451000       0.57528000       0.08711000
   233  O          0.39491000       0.54752000       0.08271000
   234  O          0.60509000       0.45248000       0.58271000
   235  O          0.10509000       0.04752000       0.58271000
   236  O          0.89491000       0.95248000       0.08271000
   237  N          0.29481000       0.40642000      -0.00099000
   238  N          0.70519000       0.59358000       0.49901000
   239  N          0.20519000       0.90642000       0.49901000
   240  N          0.79481000       0.09358000      -0.00099000
   241  O          0.36551000       0.51542000       0.00341000
   242  O          0.63449000       0.48458000       0.50341000
   243  O          0.13449000       0.01542000       0.50341000
   244  O          0.86551000      -0.01542000       0.00341000
   245  O          0.23881000       0.44692000       0.97751000
   246  O          0.76119000       0.55308000       0.47751000
   247  O          0.26119000       0.94692000       0.47751000
   248  O          0.73881000       0.05308000       0.97751000
   249  H          0.35131000       0.23132000       0.12801000
   250  H          0.64869000       0.76868000       0.62801000
   251  H          0.14869000       0.73132000       0.62801000
   252  H          0.85131000       0.26868000       0.12801000
   253  H          0.46041000       0.55132000       0.14951000
   254  H          0.53959000       0.44868000       0.64951000
   255  H          0.03959000       0.05132000       0.64951000
   256  H          0.96041000       0.94868000       0.14951000
   257  H          0.50211000       0.54002000       0.20231000
   258  H          0.49789000       0.45998000       0.70231000
   259  H         -0.00211000       0.04002000       0.70231000
   260  H          0.00211000       0.95998000       0.20231000
   261  H          0.39911000       0.28912000       0.23631000
   262  H          0.60089000       0.71088000       0.73631000
   263  H          0.10089000       0.78912000       0.73631000
   264  H          0.89911000       0.21088000       0.23631000
   265  H          0.20311000       0.79892000       0.20611000
   266  H          0.79689000       0.20108000       0.70611000
   267  H          0.29689000       0.29892000       0.70611000
   268  H          0.70311000       0.70108000       0.20611000
   269  H          0.09571000       0.48062000       0.18761000
   270  H          0.90429000       0.51938000       0.68761000
   271  H          0.40429000      -0.01938000       0.68761000
   272  H          0.59571000       0.01938000       0.18761000
   273  H          0.08761000       0.40512000       0.13261000
   274  H          0.91239000       0.59488000       0.63261000
   275  H          0.41239000       0.90512000       0.63261000
   276  H          0.58761000       0.09488000       0.13261000
   277  H          0.23591000       0.43702000       0.08261000
   278  H          0.76409000       0.56298000       0.58261000
   279  H          0.26409000       0.93702000       0.58261000
   280  H          0.73591000       0.06298000       0.08261000
   281  H          0.12931000       0.52182000       0.07961000
   282  H          0.87069000       0.47818000       0.57961000
   283  H          0.37069000       0.02182000       0.57961000
   284  H          0.62931000      -0.02182000       0.07961000
   285  H          0.39691000       0.15212000       0.03921000
   286  H          0.60309000       0.84788000       0.53921000
   287  H          0.10309000       0.65212000       0.53921000
   288  H          0.89691000       0.34788000       0.03921000
   289  H          0.12941000       0.18702000       0.00971000
   290  H          0.87059000       0.81298000       0.50971000
   291  H          0.37059000       0.68702000       0.50971000
   292  H          0.62941000       0.31298000       0.00971000
   293  H          0.09231000       0.85122000       0.04501000
   294  H          0.90769000       0.14878000       0.54501000
   295  H          0.40769000       0.35122000       0.54501000
   296  H          0.59231000       0.64878000       0.04501000
