data_ZOYLII01
_symmetry_space_group_name_H-M    'P1'
_symmetry_Int_Tables_number       1
loop_
_symmetry_equiv_pos_site_id
_symmetry_equiv_pos_as_xyz
1 x,y,z
_cell_length_a                   5.60751
_cell_length_b                   13.03313
_cell_length_c                   14.82753
_cell_angle_alpha                114.8252
_cell_angle_beta                 100.4832
_cell_angle_gamma                91.6642
loop_
_atom_site_label
_atom_site_type_symbol
_atom_site_fract_x
_atom_site_fract_y
_atom_site_fract_z
     1  O          0.81220140       0.75102700       0.23984600
     2  O          0.18779860       0.24897300       0.76015400
     3  N          0.55763180       0.59414800       0.21148700
     4  N          0.44236820       0.40585200       0.78851300
     5  H          0.47320000       0.62561200       0.25791000
     6  H          0.52680000       0.37438800       0.74209000
     7  C          0.51342000       0.47799100       0.14366800
     8  C          0.48658000       0.52200900       0.85633200
     9  C          0.33872000       0.39690100       0.13732900
    10  C          0.66128000       0.60309900       0.86267100
    11  H          0.22970000       0.41550000       0.18250000
    12  H          0.77030000       0.58450000       0.81750000
    13  C          0.32912000       0.28657100       0.06176900
    14  C          0.67088000       0.71342900       0.93823100
    15  H          0.21010000       0.22890000       0.05490000
    16  H          0.78990000       0.77110000       0.94510000
    17  C          0.48992000       0.25941100      -0.00360900
    18  C          0.51008000       0.74058900       0.00360900
    19  H          0.48040000       0.18350000       0.94580000
    20  H          0.51960000       0.81650000       0.05420000
    21  C          0.66532000       0.34252100       0.00431900
    22  C          0.33468000       0.65747900      -0.00431900
    23  H          0.77570000       0.32370000       0.95970000
    24  H          0.22430000       0.67630000       0.04030000
    25  C          0.67634190       0.45297100       0.07816800
    26  C          0.32365810       0.54702900       0.92183200
    27  C          0.83382000       0.56168100       0.10562800
    28  C          0.16618000       0.43831900       0.89437200
    29  H          0.81390000       0.58180000       0.04750000
    30  H          0.18610000       0.41820000       0.95250000
    31  H          0.00820000       0.55500000       0.12700000
    32  H         -0.00820000       0.44500000       0.87300000
    33  C          0.74022000       0.64937100       0.19328800
    34  C          0.25978000       0.35062900       0.80671200
    35  O          0.18154150       0.63777700       0.32562600
    36  O          0.81845850       0.36222300       0.67437400
    37  N         -0.01175170       0.70604900       0.46043700
    38  N          0.01175170       0.29395100       0.53956300
    39  H          0.88380000       0.74681100       0.44241000
    40  H          0.11620000       0.25318900       0.55759000
    41  C          0.00419190       0.69951900       0.55376800
    42  C         -0.00419190       0.30048100       0.44623200
    43  C          0.86728000       0.74814100       0.62675900
    44  C          0.13272000       0.25185900       0.37324100
    45  H          0.74200000       0.79280000       0.61820000
    46  H          0.25800000       0.20720000       0.38180000
    47  C          0.92138000       0.72859100       0.71343900
    48  C          0.07862000       0.27140900       0.28656100
    49  H          0.82920000       0.75970000       0.76450000
    50  H          0.17080000       0.24030000       0.23550000
    51  C          0.10712000       0.66471100       0.72668900
    52  C          0.89288000       0.33528900       0.27331100
    53  H          0.14280000       0.65430000       0.78720000
    54  H          0.85720000       0.34570000       0.21280000
    55  C          0.24142000       0.61591100       0.65200900
    56  C          0.75858000       0.38408900       0.34799100
    57  H          0.36800000       0.57200000       0.66100000
    58  H          0.63200000       0.42800000       0.33900000
    59  C          0.18792000       0.63234900       0.56480800
    60  C          0.81208000       0.36765100       0.43519200
    61  C          0.29252000       0.59164100       0.47098800
    62  C          0.70748000       0.40835900       0.52901200
    63  H          0.26570000       0.50760000       0.43380000
    64  H          0.73430000       0.49240000       0.56620000
    65  H          0.46980000       0.61710000       0.48830000
    66  H          0.53020000       0.38290000       0.51170000
    67  C          0.15282000       0.64617100       0.40877800
    68  C          0.84718000       0.35382900       0.59122200
    69  O          0.61287150       0.85066800       0.44994600
    70  O          0.38712850       0.14933200       0.55005400
    71  N          0.33044180       0.86636800       0.32398700
    72  N          0.66955820       0.13363200       0.67601300
    73  H          0.21520000       0.81141200       0.31671000
    74  H          0.78480000       0.18858800       0.68329000
    75  C          0.32102000       0.92260100       0.26068800
    76  C          0.67898000       0.07739900       0.73931200
    77  C          0.13282000       0.91417100       0.18215900
    78  C          0.86718000       0.08582900       0.81784100
    79  H         -0.01920000       0.86851100       0.16631000
    80  H          0.01920000       0.13148900       0.83369000
    81  C          0.17272000       0.97636100       0.12853900
    82  C          0.82728000       0.02363900       0.87146100
    83  H          0.04740000       0.97260000       0.07430000
    84  H          0.95260000       0.02740000       0.92570000
    85  C          0.39222000       0.04385100       0.15276900
    86  C          0.60778000       0.95614900       0.84723100
    87  H          0.41650000       0.08410000       0.11400000
    88  H          0.58350000       0.91590000       0.88600000
    89  C          0.57692000       0.05302100       0.23340900
    90  C          0.42308000       0.94697900       0.76659100
    91  H          0.72580000       0.10030000       0.25060000
    92  H          0.27420000       0.89970000       0.74940000
    93  C          0.54072000      -0.00756100       0.28806900
    94  C          0.45928000       0.00756100       0.71193100
    95  C          0.69842000       0.98343100       0.37714900
    96  C          0.30158000       0.01656900       0.62285100
    97  H          0.71920000       0.05461200       0.43851000
    98  H          0.28080000       0.94538800       0.56149000
    99  H          0.86230000       0.96191100       0.36471000
   100  H          0.13770000       0.03808900       0.63529000
   101  C          0.55062000       0.89258100       0.39002900
   102  C          0.44938000       0.10741900       0.60997100
