data_ZOYLII18
_symmetry_space_group_name_H-M    'P1'
_symmetry_Int_Tables_number       1
loop_
_symmetry_equiv_pos_site_id
_symmetry_equiv_pos_as_xyz
1 x,y,z
_cell_length_a                   6.004901
_cell_length_b                   14.51482
_cell_length_c                   7.376101
_cell_angle_alpha                90.0
_cell_angle_beta                 95.9672
_cell_angle_gamma                90.0
loop_
_atom_site_label
_atom_site_type_symbol
_atom_site_fract_x
_atom_site_fract_y
_atom_site_fract_z
     1  O          0.78561140       0.51726500       0.62406110
     2  O          0.21438860       0.01726500       0.87593890
     3  O          0.21438860       0.48273500       0.37593890
     4  O          0.78561140       0.98273500       0.12406110
     5  N          0.57734160       0.38568600       0.56352130
     6  N          0.42265840       0.88568600       0.93647870
     7  N          0.42265840       0.61431400       0.43647870
     8  N          0.57734160       0.11431400       0.06352130
     9  H          0.45450500       0.41119200       0.51875400
    10  H          0.54549500       0.91119200      -0.01875400
    11  H          0.54549500       0.58880800       0.48124600
    12  H          0.45450500       0.08880800       0.01875400
    13  C          0.60862190       0.29000700       0.58096140
    14  C          0.39137810       0.79000700       0.91903860
    15  C          0.39137810       0.70999300       0.41903860
    16  C          0.60862190       0.20999300       0.08096140
    17  C          0.76461180       0.43274800       0.62597140
    18  C          0.23538820       0.93274800       0.87402860
    19  C          0.23538820       0.56725200       0.37402860
    20  C          0.76461180       0.06725200       0.12597140
    21  C          0.82552190       0.27204700       0.66075140
    22  C          0.17447810       0.77204700       0.83924860
    23  C          0.17447810       0.72795300       0.33924860
    24  C          0.82552190       0.22795300       0.16075140
    25  C          0.45622000       0.22069800       0.53285150
    26  C          0.54378000       0.72069800       0.96714850
    27  C          0.54378000       0.77930200       0.46714850
    28  C          0.45622000       0.27930200       0.03285150
    29  H          0.31260900       0.23388800       0.47943200
    30  H          0.68739100       0.73388800       0.02056800
    31  H          0.68739100       0.76611200       0.52056800
    32  H          0.31260900       0.26611200       0.97943200
    33  C          0.89283190       0.18193800       0.69387150
    34  C          0.10716810       0.68193800       0.80612850
    35  C          0.10716810       0.81806200       0.30612850
    36  C          0.89283190       0.31806200       0.19387150
    37  H          0.03679000       0.16892900       0.74673800
    38  H          0.96321000       0.66892900       0.75326200
    39  H          0.96321000       0.83107100       0.25326200
    40  H          0.03679000       0.33107100       0.24673800
    41  C          0.94177180       0.36314800       0.69716150
    42  C          0.05822820       0.86314800       0.80283850
    43  C          0.05822820       0.63685200       0.30283850
    44  C          0.94177180       0.13685200       0.19716150
    45  H          0.07367900       0.36783400       0.63216500
    46  H          0.92632100       0.86783400       0.86783500
    47  H          0.92632100       0.63216600       0.36783500
    48  H          0.07367900       0.13216600       0.13216500
    49  H         -0.01483100       0.37176000       0.82642100
    50  H          0.01483100       0.87176000       0.67357900
    51  H          0.01483100       0.62824000       0.17357900
    52  H         -0.01483100       0.12824000       0.32642100
    53  C          0.74112000       0.11069800       0.64664160
    54  C          0.25888000       0.61069800       0.85335840
    55  C          0.25888000       0.88930200       0.35335840
    56  C          0.74112000       0.38930200       0.14664160
    57  H          0.78457900       0.04985700       0.66839700
    58  H          0.21542100       0.54985700       0.83160300
    59  H          0.21542100       0.95014300       0.33160300
    60  H          0.78457900       0.45014300       0.16839700
    61  C          0.52622000       0.12987800       0.56760160
    62  C          0.47378000       0.62987800       0.93239840
    63  C          0.47378000       0.87012200       0.43239840
    64  C          0.52622000       0.37012200       0.06760160
    65  H          0.42728000       0.08165900       0.53728400
    66  H          0.57272000       0.58165900       0.96271600
    67  H          0.57272000       0.91834100       0.46271600
    68  H          0.42728000       0.41834100       0.03728400
