data_ZOYLII16
_symmetry_space_group_name_H-M    'P1'
_symmetry_Int_Tables_number       1
loop_
_symmetry_equiv_pos_site_id
_symmetry_equiv_pos_as_xyz
1 x,y,z
_cell_length_a                   7.48072
_cell_length_b                   11.71622
_cell_length_c                   8.18962
_cell_angle_alpha                90.0
_cell_angle_beta                 112.4482
_cell_angle_gamma                90.0
loop_
_atom_site_label
_atom_site_type_symbol
_atom_site_fract_x
_atom_site_fract_y
_atom_site_fract_z
     1  O          0.36141150       0.36392800       0.93465130
     2  O          0.63858850       0.86392800       0.56534870
     3  O          0.63858850       0.63607200       0.06534870
     4  O          0.36141150       0.13607200       0.43465130
     5  N          0.37894160       0.51576100       0.76371150
     6  N          0.62105840       0.01576100       0.73628850
     7  N          0.62105840       0.48423900       0.23628850
     8  N          0.37894160       0.98423900       0.26371150
     9  H          0.44733200       0.56195900       0.84956300
    10  H          0.55266800       0.06195900       0.65043700
    11  H          0.55266800       0.43804100       0.15043700
    12  H          0.44733200       0.93804100       0.34956300
    13  C          0.32107190       0.40998120       0.78925170
    14  C          0.67892810       0.90998120       0.71074830
    15  C          0.67892810       0.59001880       0.21074830
    16  C          0.32107190       0.09001880       0.28925170
    17  C          0.20626190       0.45177110       0.48367180
    18  C          0.79373810       0.95177110       0.01632820
    19  C          0.79373810       0.54822890       0.51632820
    20  C          0.20626190       0.04822890      -0.01632820
    21  C          0.31634190       0.54251110       0.58341180
    22  C          0.68365810       0.04251110       0.91658820
    23  C          0.68365810       0.45748890       0.41658820
    24  C          0.31634190       0.95748890       0.08341180
    25  C          0.20192000       0.35933110       0.60957180
    26  C          0.79808000       0.85933110       0.89042820
    27  C          0.79808000       0.64066890       0.39042820
    28  C          0.20192000       0.14066890       0.10957180
    29  H          0.26105100       0.28803800       0.58869500
    30  H          0.73894900       0.78803800       0.91130500
    31  H          0.73894900       0.71196200       0.41130500
    32  H          0.26105100       0.21196200       0.08869500
    33  H          0.06791700       0.34323100       0.59862300
    34  H          0.93208300       0.84323100       0.90137700
    35  H          0.93208300       0.65676900       0.40137700
    36  H          0.06791700       0.15676900       0.09862300
    37  C          0.35162000       0.64003110       0.50594190
    38  C          0.64838000       0.14003110      -0.00594190
    39  C          0.64838000       0.35996890       0.49405810
    40  C          0.35162000       0.85996890       0.00594190
    41  H          0.42749200       0.70064500       0.57523900
    42  H          0.57250800       0.20064500       0.92476100
    43  H          0.57250800       0.29935500       0.42476100
    44  H          0.42749200       0.79935500       0.07523900
    45  C          0.13072000       0.45831120       0.30158190
    46  C          0.86928000       0.95831120       0.19841810
    47  C          0.86928000       0.54168880       0.69841810
    48  C          0.13072000       0.04168880       0.80158190
    49  H          0.05813600       0.39671800       0.23225200
    50  H          0.94186400       0.89671800       0.26774800
    51  H          0.94186400       0.60328200       0.76774800
    52  H          0.05813600       0.10328200       0.73225200
    53  C          0.27152000       0.64608120       0.32182000
    54  C          0.72848000       0.14608120       0.17818000
    55  C          0.72848000       0.35391880       0.67818000
    56  C          0.27152000       0.85391880       0.82182000
    57  H          0.29184100       0.71245000       0.26447900
    58  H          0.70815900       0.21245000       0.23552100
    59  H          0.70815900       0.28755000       0.73552100
    60  H          0.29184100       0.78755000       0.76447900
    61  C          0.16282000       0.55676140       0.22109190
    62  C          0.83718000       0.05676140       0.27890810
    63  C          0.83718000       0.44323860       0.77890810
    64  C          0.16282000       0.94323860       0.72109190
    65  H          0.10953600       0.56276500       0.09593000
    66  H          0.89046400       0.06276500       0.40407000
    67  H          0.89046400       0.43723500       0.90407000
    68  H          0.10953600       0.93723500       0.59593000
