data_ZOYLII13
_symmetry_space_group_name_H-M    'P1'
_symmetry_Int_Tables_number       1
loop_
_symmetry_equiv_pos_site_id
_symmetry_equiv_pos_as_xyz
1 x,y,z
_cell_length_a                   12.04553
_cell_length_b                   7.09492
_cell_length_c                   7.96702
_cell_angle_alpha                90.0
_cell_angle_beta                 101.3143
_cell_angle_gamma                90.0
loop_
_atom_site_label
_atom_site_type_symbol
_atom_site_fract_x
_atom_site_fract_y
_atom_site_fract_z
     1  O          0.51600700       0.24339120       0.72192110
     2  O          0.48399300       0.74339120       0.77807890
     3  O          0.48399300       0.75660880       0.27807890
     4  O          0.51600700       0.25660880       0.22192110
     5  N          0.38771800       0.44822140       0.57202120
     6  N          0.61228200       0.94822140       0.92797880
     7  N          0.61228200       0.55177860       0.42797880
     8  N          0.38771800       0.05177860       0.07202120
     9  H          0.41810000       0.55280000       0.61960000
    10  H          0.58190000       0.05280000       0.88040000
    11  H          0.58190000       0.44720000       0.38040000
    12  H          0.41810000       0.94720000       0.11960000
    13  C          0.28978900       0.44233170       0.44402140
    14  C          0.71021100       0.94233170       0.05597860
    15  C          0.71021100       0.55766830       0.55597860
    16  C          0.28978900       0.05766830       0.94402140
    17  C          0.22410100       0.59072180       0.36983150
    18  C          0.77589900       0.09072180       0.13016850
    19  C          0.77589900       0.40927820       0.63016850
    20  C          0.22410100       0.90927820       0.86983150
    21  H          0.24270000       0.71730000       0.40260000
    22  H          0.75730000       0.21730000       0.09740000
    23  H          0.75730000       0.28270000       0.59740000
    24  H          0.24270000       0.78270000       0.90260000
    25  C          0.12938100       0.54772000       0.24492160
    26  C          0.87061900       0.04772000       0.25507840
    27  C          0.87061900       0.45228000       0.75507840
    28  C          0.12938100       0.95228000       0.74492160
    29  H          0.08250000       0.64670000       0.19090000
    30  H          0.91750000       0.14670000       0.30910000
    31  H          0.91750000       0.35330000       0.80910000
    32  H          0.08250000       0.85330000       0.69090000
    33  C          0.10243100       0.36222000       0.19815150
    34  C          0.89756900       0.86222000       0.30184850
    35  C          0.89756900       0.63778000       0.80184850
    36  C          0.10243100       0.13778000       0.69815150
    37  H          0.03710000       0.33580000       0.11330000
    38  H          0.96290000       0.83580000       0.38670000
    39  H          0.96290000       0.66420000       0.88670000
    40  H          0.03710000       0.16420000       0.61330000
    41  C          0.17030100       0.21409190       0.27456150
    42  C          0.82969900       0.71409190       0.22543850
    43  C          0.82969900       0.78590810       0.72543850
    44  C          0.17030100       0.28590810       0.77456150
    45  H          0.15170000       0.08740000       0.24200000
    46  H          0.84830000       0.58740000       0.25800000
    47  H          0.84830000       0.91260000       0.75800000
    48  H          0.15170000       0.41260000       0.74200000
    49  C          0.26485100       0.25421170       0.39823140
    50  C          0.73514900       0.75421170       0.10176860
    51  C          0.73514900       0.74578830       0.60176860
    52  C          0.26485100       0.24578830       0.89823140
    53  C          0.35310100       0.13155170       0.50508140
    54  C          0.64689900       0.63155170      -0.00508140
    55  C          0.64689900       0.86844830       0.49491860
    56  C          0.35310100       0.36844830       0.00508140
    57  H          0.39500000       0.05750000       0.43250000
    58  H          0.60500000       0.55750000       0.06750000
    59  H          0.60500000       0.94250000       0.56750000
    60  H          0.39500000       0.44250000       0.93250000
    61  H          0.31870000       0.04430000       0.57740000
    62  H          0.68130000       0.54430000       0.92260000
    63  H          0.68130000       0.95570000       0.42260000
    64  H          0.31870000       0.45570000       0.07740000
    65  C          0.43002100       0.27393160       0.61383150
    66  C          0.56997900       0.77393160       0.88616850
    67  C          0.56997900       0.72606840       0.38616850
    68  C          0.43002100       0.22606840       0.11383150
