data_ZOYLII03
_symmetry_space_group_name_H-M    'P1'
_symmetry_Int_Tables_number       1
loop_
_symmetry_equiv_pos_site_id
_symmetry_equiv_pos_as_xyz
1 x,y,z
_cell_length_a                   14.26449
_cell_length_b                   12.95698
_cell_length_c                   6.99314
_cell_angle_alpha                90.0
_cell_angle_beta                 100.3936
_cell_angle_gamma                90.0
loop_
_atom_site_label
_atom_site_type_symbol
_atom_site_fract_x
_atom_site_fract_y
_atom_site_fract_z
     1  O          0.26247900       0.41876100       0.02439180
     2  O          0.73752100       0.91876100       0.47560820
     3  O          0.73752100       0.58123900       0.97560820
     4  O          0.26247900       0.08123900       0.52439180
     5  N          0.12358110       0.32415120       0.95352000
     6  N          0.87641890       0.82415120       0.54648000
     7  N          0.87641890       0.67584880       0.04648000
     8  N          0.12358110       0.17584880       0.45352000
     9  H          0.15071300       0.26421400      -0.00280000
    10  H          0.84928700       0.76421400       0.50280000
    11  H          0.84928700       0.73578600       0.00280000
    12  H          0.15071300       0.23578600       0.49720000
    13  C          0.02956120       0.33990140       0.85732000
    14  C          0.97043880       0.83990140       0.64268000
    15  C          0.97043880       0.66009860       0.14268000
    16  C          0.02956120       0.16009860       0.35732000
    17  C          0.95426880       0.27082150       0.83572000
    18  C          0.04573120       0.77082150       0.66428000
    19  C          0.04573120       0.72917850       0.16428000
    20  C          0.95426880       0.22917850       0.33572000
    21  H          0.96240000       0.20230000       0.88410000
    22  H          0.03760000       0.70230000       0.61590000
    23  H          0.03760000       0.79770000       0.11590000
    24  H          0.96240000       0.29770000       0.38410000
    25  C          0.86602870       0.30642150       0.73993000
    26  C          0.13397130       0.80642150       0.76007000
    27  C          0.13397130       0.69357850       0.26007000
    28  C          0.86602870       0.19357850       0.23993000
    29  H          0.81280000       0.26110000       0.72250000
    30  H          0.18720000       0.76110000       0.77750000
    31  H          0.18720000       0.73890000       0.27750000
    32  H          0.81280000       0.23890000       0.22250000
    33  C          0.85416870       0.40640150       0.66953000
    34  C          0.14583130       0.90640150       0.83047000
    35  C          0.14583130       0.59359850       0.33047000
    36  C          0.85416870       0.09359850       0.16953000
    37  H          0.79320000       0.42870000       0.60490000
    38  H          0.20680000       0.92870000       0.89510000
    39  H          0.20680000       0.57130000       0.39510000
    40  H          0.79320000       0.07130000       0.10490000
    41  C          0.93135870       0.47479150       0.69283000
    42  C          0.06864130       0.97479150       0.80717000
    43  C          0.06864130       0.52520850       0.30717000
    44  C          0.93135870       0.02520850       0.19283000
    45  H          0.92340000       0.54330000       0.64420000
    46  H          0.07660000       0.04330000       0.85580000
    47  H          0.07660000       0.45670000       0.35580000
    48  H          0.92340000       0.95670000       0.14420000
    49  C          0.01945130       0.44072140       0.78792000
    50  C          0.98054870       0.94072140       0.71208000
    51  C          0.98054870       0.55927860       0.21208000
    52  C          0.01945130       0.05927860       0.28792000
    53  C          0.11420120       0.49399140       0.84173000
    54  C          0.88579880      -0.00600860       0.65827000
    55  C          0.88579880       0.50600860       0.15827000
    56  C          0.11420120       0.00600860       0.34173000
    57  H          0.10960000       0.55470000       0.92540000
    58  H          0.89040000       0.05470000       0.57460000
    59  H          0.89040000       0.44530000       0.07460000
    60  H          0.10960000       0.94530000       0.42540000
    61  H          0.13860000       0.51640000       0.72450000
    62  H          0.86140000       0.01640000       0.77550000
    63  H          0.86140000       0.48360000       0.27550000
    64  H          0.13860000       0.98360000       0.22450000
    65  C          0.17736140       0.41094150       0.95143000
    66  C          0.82263860       0.91094150       0.54857000
    67  C          0.82263860       0.58905850       0.04857000
    68  C          0.17736140       0.08905850       0.45143000
    69  O          0.22459900       0.36468900       0.54922170
    70  O          0.77540100       0.86468900       0.95077830
    71  O          0.77540100       0.63531100       0.45077830
    72  O          0.22459900       0.13531100       0.04922170
    73  N          0.35670110       0.26577120       0.66652000
    74  N          0.64329890       0.76577120       0.83348000
    75  N          0.64329890       0.73422880       0.33348000
    76  N          0.35670110       0.23422880       0.16652000
    77  H          0.32831200       0.20551400       0.63520000
    78  H          0.67168800       0.70551400       0.86480000
    79  H          0.67168800       0.79448600       0.36480000
    80  H          0.32831200       0.29448600       0.13520000
    81  C          0.45352120       0.28223140       0.74653000
    82  C          0.54647880       0.78223140       0.75347000
    83  C          0.54647880       0.71776860       0.25347000
    84  C          0.45352120       0.21776860       0.24653000
    85  C          0.52254130       0.20941140       0.80912000
    86  C          0.47745870       0.70941140       0.69088000
    87  C          0.47745870       0.79058860       0.19088000
    88  C          0.52254130       0.29058860       0.30912000
    89  H          0.50810000       0.13780000       0.80290000
    90  H          0.49190000       0.63780000       0.69710000
    91  H          0.49190000       0.86220000       0.19710000
    92  H          0.50810000       0.36220000       0.30290000
    93  C          0.61454130       0.24471140       0.88213000
    94  C          0.38545870       0.74471140       0.61787000
    95  C          0.38545870       0.75528860       0.11787000
    96  C          0.61454130       0.25528860       0.38213000
    97  H          0.66390000       0.19640000       0.92490000
    98  H          0.33610000       0.69640000       0.57510000
    99  H          0.33610000       0.80360000       0.07510000
   100  H          0.66390000       0.30360000       0.42490000
   101  C          0.63462130       0.34917140       0.89273000
   102  C          0.36537870       0.84917140       0.60727000
   103  C          0.36537870       0.65082860       0.10727000
   104  C          0.63462130       0.15082860       0.39273000
   105  H          0.69750000       0.37180000       0.94350000
   106  H          0.30250000       0.87180000       0.55650000
   107  H          0.30250000       0.62820000       0.05650000
   108  H          0.69750000       0.12820000       0.44350000
   109  C          0.56344130       0.42170150       0.82973000
   110  C          0.43655870       0.92170150       0.67027000
   111  C          0.43655870       0.57829850       0.17027000
   112  C          0.56344130       0.07829850       0.32973000
   113  H          0.57730000       0.49350000       0.83770000
   114  H          0.42270000      -0.00650000       0.66230000
   115  H          0.42270000       0.50650000       0.16230000
   116  H          0.57730000       0.00650000       0.33770000
   117  C          0.47254130       0.38742140       0.75563000
   118  C          0.52745870       0.88742140       0.74437000
   119  C          0.52745870       0.61257860       0.24437000
   120  C          0.47254130       0.11257860       0.25563000
   121  C          0.38118130       0.44364140       0.67283000
   122  C          0.61881870       0.94364140       0.82717000
   123  C          0.61881870       0.55635860       0.32717000
   124  C          0.38118130       0.05635860       0.17283000
   125  H          0.38840000       0.48420000       0.55640000
   126  H          0.61160000       0.98420000       0.94360000
   127  H          0.61160000       0.51580000       0.44360000
   128  H          0.38840000       0.01580000       0.05640000
   129  H          0.36160000       0.49030000       0.77050000
   130  H          0.63840000      -0.00970000       0.72950000
   131  H          0.63840000       0.50970000       0.22950000
   132  H          0.36160000       0.00970000       0.27050000
   133  C          0.30991130       0.35638140       0.62043000
   134  C          0.69008870       0.85638140       0.87957000
   135  C          0.69008870       0.64361860       0.37957000
   136  C          0.30991130       0.14361860       0.12043000
