data_ZOYLII19
_symmetry_space_group_name_H-M    'P1'
_symmetry_Int_Tables_number       1
loop_
_symmetry_equiv_pos_site_id
_symmetry_equiv_pos_as_xyz
1 x,y,z
_cell_length_a                   10.78742
_cell_length_b                   5.110501
_cell_length_c                   12.33443
_cell_angle_alpha                90.0
_cell_angle_beta                 114.7003
_cell_angle_gamma                90.0
loop_
_atom_site_label
_atom_site_type_symbol
_atom_site_fract_x
_atom_site_fract_y
_atom_site_fract_z
     1  O          0.54742800       0.02451160       0.36998700
     2  O          0.45257200       0.52451160       0.13001300
     3  O          0.45257200      -0.02451160       0.63001300
     4  O          0.54742800       0.47548840       0.86998700
     5  N          0.61133900       0.72306190       0.52292900
     6  N          0.38866100       0.22306190       0.97707100
     7  N          0.38866100       0.27693810       0.47707100
     8  N          0.61133900       0.77693810       0.02292900
     9  H          0.55555700       0.77190800       0.55465900
    10  H          0.44444300       0.27190800       0.94534100
    11  H          0.44444300       0.22809200       0.44534100
    12  H          0.55555700       0.72809200       0.05465900
    13  C          0.61545110       0.83512000       0.42452100
    14  C          0.38454890       0.33512000       0.07547900
    15  C          0.38454890       0.16488000       0.57547900
    16  C          0.61545110       0.66488000       0.92452100
    17  C          0.77646110       0.49032000       0.49472100
    18  C          0.22353890      -0.00968000       0.00527900
    19  C          0.22353890       0.50968000       0.50527900
    20  C          0.77646110       0.00968000      -0.00527900
    21  C          0.83517120       0.17322000       0.69206100
    22  C          0.16482880       0.67322000       0.80793900
    23  C          0.16482880       0.82678000       0.30793900
    24  C          0.83517120       0.32678000       0.19206100
    25  H          0.85582900       0.06182100       0.75904400
    26  H          0.14417100       0.56182100       0.74095600
    27  H          0.14417100       0.93817900       0.24095600
    28  H          0.85582900       0.43817900       0.25904400
    29  C          0.70700110       0.51972000       0.56773100
    30  C          0.29299890       0.01972000       0.93226900
    31  C          0.29299890       0.48028000       0.43226900
    32  C          0.70700110      -0.01972000       0.06773100
    33  C          0.73325110       0.36182000       0.66624100
    34  C          0.26674890       0.86182000       0.83375900
    35  C          0.26674890       0.63818000       0.33375900
    36  C          0.73325110       0.13818000       0.16624100
    37  H          0.68400100       0.38106800       0.71409100
    38  H          0.31599900       0.88106800       0.78590900
    39  H          0.31599900       0.61893200       0.28590900
    40  H          0.68400100       0.11893200       0.21409100
    41  C          0.90720120       0.14462000       0.62198110
    42  C          0.09279880       0.64462000       0.87801890
    43  C          0.09279880       0.85538000       0.37801890
    44  C          0.90720120       0.35538000       0.12198110
    45  H          0.97723900       0.01670600       0.64235600
    46  H          0.02276100       0.51670600       0.85764400
    47  H          0.02276100      -0.01670600       0.35764400
    48  H          0.97723900       0.48329400       0.14235600
    49  C          0.71721120       0.68182000       0.39352100
    50  C          0.28278880       0.18182000       0.10647900
    51  C          0.28278880       0.31818000       0.60647900
    52  C          0.71721120       0.81818000       0.89352100
    53  H          0.67106900       0.59020000       0.31618300
    54  H          0.32893100       0.09020000       0.18381700
    55  H          0.32893100       0.40980000       0.68381700
    56  H          0.67106900       0.90980000       0.81618300
    57  H          0.78871600       0.79811200       0.38979300
    58  H          0.21128400       0.29811200       0.11020700
    59  H          0.21128400       0.20188800       0.61020700
    60  H          0.78871600       0.70188800       0.88979300
    61  C          0.87719110       0.30272000       0.52193100
    62  C          0.12280890       0.80272000       0.97806900
    63  C          0.12280890       0.69728000       0.47806900
    64  C          0.87719110       0.19728000       0.02193100
    65  H          0.92532200       0.28155500       0.47323500
    66  H          0.07467800       0.78155500       0.02676500
    67  H          0.07467800       0.71844500       0.52676500
    68  H          0.92532200       0.21844500       0.97323500
