data_ZOYLII05
_symmetry_space_group_name_H-M    'P1'
_symmetry_Int_Tables_number       1
loop_
_symmetry_equiv_pos_site_id
_symmetry_equiv_pos_as_xyz
1 x,y,z
_cell_length_a                   12.82343
_cell_length_b                   8.06742
_cell_length_c                   13.45053
_cell_angle_alpha                90.0
_cell_angle_beta                 111.5312
_cell_angle_gamma                90.0
loop_
_atom_site_label
_atom_site_type_symbol
_atom_site_fract_x
_atom_site_fract_y
_atom_site_fract_z
     1  O          0.33469600       0.02828100       0.10513600
     2  O          0.66530400       0.52828100       0.39486400
     3  O          0.66530400       0.97171900       0.89486400
     4  O          0.33469600       0.47171900       0.60513600
     5  N          0.20223800       0.95077120       0.94410800
     6  N          0.79776200       0.45077120       0.55589200
     7  N          0.79776200       0.04922880       0.05589200
     8  N          0.20223800       0.54922880       0.44410800
     9  H          0.24071100      -0.01548400       0.90601000
    10  H          0.75928900       0.48451600       0.59399000
    11  H          0.75928900       0.01548400       0.09399000
    12  H          0.24071100       0.51548400       0.40601000
    13  C          0.10037900       0.86384140       0.90704900
    14  C          0.89962100       0.36384140       0.59295100
    15  C          0.89962100       0.13615860       0.09295100
    16  C          0.10037900       0.63615860       0.40704900
    17  C          0.03277900       0.82820140       0.80257900
    18  C          0.96722100       0.32820140       0.69742100
    19  C          0.96722100       0.17179860       0.19742100
    20  C          0.03277900       0.67179860       0.30257900
    21  H          0.05250000       0.86250000       0.74420000
    22  H          0.94750000       0.36250000       0.75580000
    23  H          0.94750000       0.13750000       0.25580000
    24  H          0.05250000       0.63750000       0.24420000
    25  C          0.93457900       0.73994150       0.78656900
    26  C          0.06542100       0.23994150       0.71343100
    27  C          0.06542100       0.26005850       0.21343100
    28  C          0.93457900       0.76005850       0.28656900
    29  H          0.88630000       0.71350000       0.71580000
    30  H          0.11370000       0.21350000       0.78420000
    31  H          0.11370000       0.28650000       0.28420000
    32  H          0.88630000       0.78650000       0.21580000
    33  C          0.90591900       0.68987160       0.87169100
    34  C          0.09408100       0.18987160       0.62830900
    35  C          0.09408100       0.31012840       0.12830900
    36  C          0.90591900       0.81012840       0.37169100
    37  H          0.83860000       0.62960000       0.85870000
    38  H          0.16140000       0.12960000       0.64130000
    39  H          0.16140000       0.37040000       0.14130000
    40  H          0.83860000       0.87040000       0.35870000
    41  C          0.97536900       0.72745150       0.97642900
    42  C          0.02463100       0.22745150       0.52357100
    43  C          0.02463100       0.27254850       0.02357100
    44  C          0.97536900       0.77254850       0.47642900
    45  H          0.95590000       0.69300000       0.03490000
    46  H          0.04410000       0.19300000       0.46510000
    47  H          0.04410000       0.30700000       0.96510000
    48  H          0.95590000       0.80700000       0.53490000
    49  C          0.07275900       0.81546140      -0.00622100
    50  C          0.92724100       0.31546140       0.50622100
    51  C          0.92724100       0.18453860       0.00622100
    52  C          0.07275900       0.68453860       0.49377900
    53  C          0.16317900       0.87745150       0.09389900
    54  C          0.83682100       0.37745150       0.40610100
    55  C          0.83682100       0.12254850       0.90610100
    56  C          0.16317900       0.62254850       0.59389900
    57  H          0.19940000       0.78470000       0.14250000
    58  H          0.80060000       0.28470000       0.35750000
    59  H          0.80060000       0.21530000       0.85750000
    60  H          0.19940000       0.71530000       0.64250000
    61  H          0.13270000       0.95730000       0.13220000
    62  H          0.86730000       0.45730000       0.36780000
    63  H          0.86730000       0.04270000       0.86780000
    64  H          0.13270000       0.54270000       0.63220000
    65  C          0.24513900       0.96146140       0.05209900
    66  C          0.75486100       0.46146140       0.44790100
    67  C          0.75486100       0.03853860       0.94790100
    68  C          0.24513900       0.53853860       0.55209900
    69  O          0.67182700       0.93105100       0.17230600
    70  O          0.32817300       0.43105100       0.32769400
    71  O          0.32817300       0.06894900       0.82769400
    72  O          0.67182700       0.56894900       0.67230600
    73  N          0.54255800       0.81507120       0.02039700
    74  N          0.45744200       0.31507120       0.47960300
    75  N          0.45744200       0.18492880       0.97960300
    76  N          0.54255800       0.68492880       0.52039700
    77  H          0.57121100       0.85661500       0.97511000
    78  H          0.42878900       0.35661500       0.52489000
    79  H          0.42878900       0.14338500       0.02489000
    80  H          0.57121100       0.64338500       0.47511000
    81  C          0.44978900       0.70773140      -0.00571100
    82  C          0.55021100       0.20773140       0.50571100
    83  C          0.55021100       0.29226860       0.00571100
    84  C          0.44978900       0.79226860       0.49428900
    85  C          0.37992900       0.65256150       0.89530900
    86  C          0.62007100       0.15256150       0.60469100
    87  C          0.62007100       0.34743850       0.10469100
    88  C          0.37992900       0.84743850       0.39530900
    89  H          0.39010000       0.68700000       0.83190000
    90  H          0.60990000       0.18700000       0.66810000
    91  H          0.60990000       0.31300000       0.16810000
    92  H          0.39010000       0.81300000       0.33190000
    93  C          0.29400100       0.54455150       0.89152100
    94  C          0.70599900       0.04455150       0.60847900
    95  C          0.70599900       0.45544850       0.10847900
    96  C          0.29400100       0.95544850       0.39152100
    97  H          0.24480000       0.50400000       0.82440000
    98  H          0.75520000       0.00400000       0.67560000
    99  H          0.75520000       0.49600000       0.17560000
   100  H          0.24480000      -0.00400000       0.32440000
   101  C          0.27894100       0.49496160       0.98418100
   102  C          0.72105900      -0.00503840       0.51581900
   103  C          0.72105900       0.50503840       0.01581900
   104  C          0.27894100       0.00503840       0.48418100
   105  H          0.22000000       0.42050000       0.97980000
   106  H          0.78000000       0.92050000       0.52020000
   107  H          0.78000000       0.57950000       0.02020000
   108  H          0.22000000       0.07950000       0.47980000
   109  C          0.34958100       0.55355150       0.08358100
   110  C          0.65041900       0.05355150       0.41641900
   111  C          0.65041900       0.44644850       0.91641900
   112  C          0.34958100       0.94644850       0.58358100
   113  H          0.33890000       0.52040000       0.14700000
   114  H          0.66110000       0.02040000       0.35300000
   115  H          0.66110000       0.47960000       0.85300000
   116  H          0.33890000       0.97960000       0.64700000
   117  C          0.43530900       0.66063140       0.08837900
   118  C          0.56469100       0.16063140       0.41162100
   119  C          0.56469100       0.33936860       0.91162100
   120  C          0.43530900       0.83936860       0.58837900
   121  C          0.52380100       0.74474160       0.18044900
   122  C          0.47619900       0.24474160       0.31955100
   123  C          0.47619900       0.25525840       0.81955100
   124  C          0.52380100       0.75525840       0.68044900
   125  H          0.57441100       0.66921600       0.23441000
   126  H          0.42558900       0.16921600       0.26559000
   127  H          0.42558900       0.33078400       0.76559000
   128  H          0.57441100       0.83078400       0.73441000
   129  H          0.49201100       0.82031700       0.21811000
   130  H          0.50798900       0.32031700       0.28189000
   131  H          0.50798900       0.17968300       0.78189000
   132  H          0.49201100       0.67968300       0.71811000
   133  C          0.58975900       0.84175140       0.12712900
   134  C          0.41024100       0.34175140       0.37287100
   135  C          0.41024100       0.15824860       0.87287100
   136  C          0.58975900       0.65824860       0.62712900
