data_ZOYLII17
_symmetry_space_group_name_H-M    'P1'
_symmetry_Int_Tables_number       1
loop_
_symmetry_equiv_pos_site_id
_symmetry_equiv_pos_as_xyz
1 x,y,z
_cell_length_a                   7.363601
_cell_length_b                   6.959601
_cell_length_c                   13.23742
_cell_angle_alpha                90.0
_cell_angle_beta                 99.33601
_cell_angle_gamma                90.0
loop_
_atom_site_label
_atom_site_type_symbol
_atom_site_fract_x
_atom_site_fract_y
_atom_site_fract_z
     1  O          0.14485110       0.46155110       0.22656600
     2  O          0.35514890       0.96155110       0.27343400
     3  O          0.85514890       0.53844890       0.77343400
     4  O          0.64485110       0.03844890       0.72656600
     5  N          0.24490120       0.63447130       0.37243700
     6  N          0.25509880       0.13447130       0.12756300
     7  N          0.75509880       0.36552870       0.62756300
     8  N          0.74490120       0.86552870       0.87243700
     9  H          0.26614600       0.74399700       0.34324400
    10  H          0.23385400       0.24399700       0.15675600
    11  H          0.73385400       0.25600300       0.65675600
    12  H          0.76614600       0.75600300       0.84324400
    13  C          0.22192130       0.41633150       0.49890800
    14  C          0.27807870       0.91633150       0.00109200
    15  C          0.77807870       0.58366850       0.50109200
    16  C          0.72192130       0.08366850      -0.00109200
    17  C          0.27770130       0.60243150       0.47857800
    18  C          0.22229870       0.10243150       0.02142200
    19  C          0.72229870       0.39756850       0.52142200
    20  C          0.77770130       0.89756850       0.97857800
    21  C          0.14735140       0.32253150       0.39834800
    22  C          0.35264860       0.82253150       0.10165200
    23  C          0.85264860       0.67746850       0.60165200
    24  C          0.64735140       0.17746850       0.89834800
    25  H          0.01520700       0.29105400       0.39402700
    26  H          0.48479300       0.79105400       0.10597300
    27  H         -0.01520700       0.70894600       0.60597300
    28  H          0.51520700       0.20894600       0.89402700
    29  H          0.21617800       0.20379700       0.38815300
    30  H          0.28382200       0.70379700       0.11184700
    31  H          0.78382200       0.79620300       0.61184700
    32  H          0.71617800       0.29620300       0.88815300
    33  C          0.35605140       0.72615160       0.55543800
    34  C          0.14394860       0.22615160       0.94456200
    35  C          0.64394860       0.27384840       0.44456200
    36  C          0.85605140       0.77384840       0.05543800
    37  H          0.39253700       0.85254100       0.54045800
    38  H          0.10746300       0.35254100       0.95954200
    39  H          0.60746300       0.14745900       0.45954200
    40  H          0.89253700       0.64745900       0.04045800
    41  C          0.24498140       0.35076160       0.59870800
    42  C          0.25501860       0.85076160       0.90129200
    43  C          0.75501860       0.64923840       0.40129200
    44  C          0.74498140       0.14923840       0.09870800
    45  H          0.20750300       0.22468600       0.61358700
    46  H          0.29249700       0.72468600       0.88641300
    47  H          0.79249700       0.77531400       0.38641300
    48  H          0.70750300       0.27531400       0.11358700
    49  C          0.17650140       0.47566150       0.32065800
    50  C          0.32349860       0.97566150       0.17934200
    51  C          0.82349860       0.52433850       0.67934200
    52  C          0.67650140       0.02433850       0.82065800
    53  C          0.37920140       0.65748170       0.65583800
    54  C          0.12079860       0.15748170       0.84416200
    55  C          0.62079860       0.34251830       0.34416200
    56  C          0.87920140       0.84251830       0.15583800
    57  H          0.43339100       0.73832200       0.71030500
    58  H          0.06660900       0.23832200       0.78969500
    59  H          0.56660900       0.26167800       0.28969500
    60  H          0.93339100       0.76167800       0.21030500
    61  C          0.32444140       0.47317170       0.67743800
    62  C          0.17555860       0.97317170       0.82256200
    63  C          0.67555860       0.52682830       0.32256200
    64  C          0.82444140       0.02682830       0.17743800
    65  H          0.34108500       0.42976900       0.74636000
    66  H          0.15891500       0.92976900       0.75364000
    67  H          0.65891500       0.57023100       0.25364000
    68  H          0.84108500       0.07023100       0.24636000
