data_ZOYMOP04
_symmetry_space_group_name_H-M    'P1'
_symmetry_Int_Tables_number       1
loop_
_symmetry_equiv_pos_site_id
_symmetry_equiv_pos_as_xyz
1 x,y,z
_cell_length_a                   6.17801
_cell_length_b                   21.7975
_cell_length_c                   6.28781
_cell_angle_alpha                90.0
_cell_angle_beta                 106.8971
_cell_angle_gamma                90.0
loop_
_atom_site_label
_atom_site_type_symbol
_atom_site_fract_x
_atom_site_fract_y
_atom_site_fract_z
     1  C          0.49432000       0.57122600       0.00358190
     2  C          0.50568000       0.07122600      -0.00358190
     3  H          0.36200000       0.59420000       0.91090000
     4  H          0.63800000       0.09420000       0.08910000
     5  H          0.62970000       0.58600000       0.96520000
     6  H          0.37030000       0.08600000       0.03480000
     7  C          0.46182000       0.50321600       0.94598000
     8  C          0.53818000       0.00321600       0.05402000
     9  H          0.32140000       0.48840000       0.97470000
    10  H          0.67860000       0.98840000       0.02530000
    11  H          0.44630000       0.49730000       0.78610000
    12  H          0.55370000      -0.00270000       0.21390000
    13  C          0.66292000       0.46641500       0.08498190
    14  C          0.33708000       0.96641500       0.91501810
    15  H          0.80260000       0.47980000       0.04810000
    16  H          0.19740000       0.97980000       0.95190000
    17  C          0.69472000       0.47681500       0.33242000
    18  C          0.30528000       0.97681500       0.66758000
    19  H          0.56680000       0.45780000       0.37330000
    20  H          0.43320000       0.95780000       0.62670000
    21  H          0.83540000       0.45620000       0.41920000
    22  H          0.16460000       0.95620000       0.58080000
    23  C          0.70797180       0.54421500       0.39377180
    24  C          0.29202820       0.04421500       0.60622820
    25  C          0.87173190       0.56483600       0.56949180
    26  C          0.12826810       0.06483600       0.43050820
    27  H         -0.01970000       0.53600000       0.64970000
    28  H          0.01970000       0.03600000       0.35030000
    29  C          0.89618180       0.63013600       0.64895180
    30  C          0.10381820       0.13013600       0.35104820
    31  H          0.02800000       0.64870000       0.61410000
    32  H         -0.02800000       0.14870000       0.38590000
    33  H          0.92680000       0.63050000       0.81250000
    34  H          0.07320000       0.13050000       0.18750000
    35  C          0.68671170       0.66915500       0.54420170
    36  C          0.31328830       0.16915500       0.45579830
    37  H          0.56830000       0.65980000       0.61920000
    38  H          0.43170000       0.15980000       0.38080000
    39  C          0.59260180       0.65437500       0.29418170
    40  C          0.40739820       0.15437500       0.70581830
    41  H          0.72010000       0.66100000       0.22860000
    42  H          0.27990000       0.16100000       0.77140000
    43  C          0.52283170       0.58578500       0.25180170
    44  C          0.47716830       0.08578500       0.74819830
    45  C          0.40281190       0.69899600       0.17278190
    46  C          0.59718810       0.19899600       0.82721810
    47  H          0.36340000       0.69090000       0.01110000
    48  H          0.63660000       0.19090000      -0.01110000
    49  H          0.26670000       0.69040000       0.22080000
    50  H          0.73330000       0.19040000       0.77920000
    51  C          0.46450190       0.76715500       0.21431170
    52  C          0.53549810       0.26715500       0.78568830
    53  H          0.58510000       0.77790000       0.14600000
    54  H          0.41490000       0.27790000       0.85400000
    55  H          0.33040000       0.79280000       0.14440000
    56  H          0.66960000       0.29280000       0.85560000
    57  C          0.54585180       0.77996500       0.46286170
    58  C          0.45414820       0.27996500       0.53713830
    59  C          0.74522170       0.73718500       0.57147170
    60  C          0.25477830       0.23718500       0.42852830
    61  H          0.85940000       0.74420000       0.48930000
    62  H          0.14060000       0.24420000       0.51070000
    63  C          0.84882000       0.76452600       0.80442180
    64  C          0.15118000       0.26452600       0.19557820
    65  H          0.00940000       0.75240000       0.86560000
    66  H         -0.00940000       0.25240000       0.13440000
    67  H          0.76430000       0.75110000       0.90810000
    68  H          0.23570000       0.25110000       0.09190000
    69  C          0.82592000       0.83458600       0.76362000
    70  C          0.17408000       0.33458600       0.23638000
    71  H          0.76690000       0.85470000       0.87650000
    72  H          0.23310000       0.35470000       0.12350000
    73  H         -0.02590000       0.85290000       0.76960000
    74  H          0.02590000       0.35290000       0.23040000
    75  C          0.65966190       0.84164600       0.53185190
    76  C          0.34033810       0.34164600       0.46814810
    77  C          0.34954190       0.77667600       0.56868190
    78  C          0.65045810       0.27667600       0.43131810
    79  H          0.22530000       0.80300000       0.48530000
    80  H          0.77470000       0.30300000       0.51470000
    81  H          0.40280000       0.79060000       0.72330000
    82  H          0.59720000       0.29060000       0.27670000
    83  H          0.29600000       0.73420000       0.56450000
    84  H          0.70400000       0.23420000       0.43550000
    85  C          0.29997190       0.57198600       0.30692000
    86  C          0.70002810       0.07198600       0.69308000
    87  H          0.27620000       0.52750000       0.30590000
    88  H          0.72380000       0.02750000       0.69410000
    89  H          0.17350000       0.59130000       0.19540000
    90  H          0.82650000       0.09130000       0.80460000
    91  H          0.30870000       0.58840000       0.45430000
    92  H          0.69130000       0.08840000       0.54570000
    93  O          0.63110190       0.40182400       0.04445170
    94  O          0.36889810       0.90182400       0.95554830
    95  H          0.56840000       0.39811200       0.91460000
    96  H          0.43160000       0.89811200       0.08540000
    97  O          0.62948170       0.88814500       0.42088150
    98  O          0.37051830       0.38814500       0.57911850
