data_ZOYMOP08
_symmetry_space_group_name_H-M    'P1'
_symmetry_Int_Tables_number       1
loop_
_symmetry_equiv_pos_site_id
_symmetry_equiv_pos_as_xyz
1 x,y,z
_cell_length_a                   6.62681
_cell_length_b                   11.2512
_cell_length_c                   21.9715
_cell_angle_alpha                90.0
_cell_angle_beta                 90.0
_cell_angle_gamma                90.0
loop_
_atom_site_label
_atom_site_type_symbol
_atom_site_fract_x
_atom_site_fract_y
_atom_site_fract_z
     1  C          0.74232000       0.45910150       0.52299700
     2  C          0.75768000       0.54089850       0.02299700
     3  C          0.24232000       0.04089850       0.47700300
     4  C          0.25768000       0.95910150       0.97700300
     5  H          0.81180000       0.40390000       0.49480000
     6  H          0.68820000       0.59610000      -0.00520000
     7  H          0.31180000       0.09610000       0.50520000
     8  H          0.18820000       0.90390000       0.00520000
     9  H          0.80300000       0.53880000       0.51750000
    10  H          0.69700000       0.46120000       0.01750000
    11  H          0.30300000       0.96120000       0.48250000
    12  H          0.19700000       0.03880000       0.98250000
    13  C          0.78033000       0.41813160       0.58828800
    14  C          0.71967000       0.58186840       0.08828800
    15  C          0.28033000       0.08186840       0.41171200
    16  C          0.21967000       0.91813160       0.91171200
    17  H          0.72990000       0.33590000       0.59360000
    18  H          0.77010000       0.66410000       0.09360000
    19  H          0.22990000       0.16410000       0.40640000
    20  H          0.27010000       0.83590000       0.90640000
    21  H          0.92710000       0.41840000       0.59670000
    22  H          0.57290000       0.58160000       0.09670000
    23  H          0.42710000       0.08160000       0.40330000
    24  H          0.07290000       0.91840000       0.90330000
    25  C          0.67353000       0.50037170       0.63239800
    26  C          0.82647000       0.49962830       0.13239800
    27  C          0.17353000      -0.00037170       0.36760200
    28  C          0.32647000       0.00037170       0.86760200
    29  H          0.72900000       0.58240000       0.62730000
    30  H          0.77100000       0.41760000       0.12730000
    31  H          0.22900000       0.91760000       0.37270000
    32  H          0.27100000       0.08240000       0.87270000
    33  C          0.44763000       0.50314170       0.61915700
    34  C          0.05237000       0.49685830       0.11915700
    35  C          0.94763000      -0.00314170       0.38084300
    36  C          0.55237000       0.00314170       0.88084300
    37  H          0.38920000       0.42390000       0.62780000
    38  H          0.11080000       0.57610000       0.12780000
    39  H          0.88920000       0.07610000       0.37220000
    40  H          0.61080000       0.92390000       0.87220000
    41  H          0.38200000       0.56140000       0.64650000
    42  H          0.11800000       0.43860000       0.14650000
    43  H          0.88200000       0.93860000       0.35350000
    44  H          0.61800000       0.06140000       0.85350000
    45  C          0.40312000       0.53620150       0.55380700
    46  C          0.09688000       0.46379850       0.05380700
    47  C          0.90312000       0.96379850       0.44619300
    48  C          0.59688000       0.03620150       0.94619300
    49  C          0.27013000       0.62110160       0.54049800
    50  C          0.22987000       0.37889840       0.04049800
    51  C          0.77013000       0.87889840       0.45950200
    52  C          0.72987000       0.12110160       0.95950200
    53  H          0.20770000       0.66150000       0.57350000
    54  H          0.29230000       0.33850000       0.07350000
    55  H          0.70770000       0.83850000       0.42650000
    56  H          0.79230000       0.16150000       0.92650000
    57  C          0.21183000       0.65760150       0.47722800
    58  C          0.28817000       0.34239850       0.97722800
    59  C          0.71183000       0.84239850       0.52277200
    60  C          0.78817000       0.15760150       0.02277200
    61  H          0.27230000       0.73610000       0.46820000
    62  H          0.22770000       0.26390000       0.96820000
    63  H          0.77230000       0.76390000       0.53180000
    64  H          0.72770000       0.23610000       0.03180000
    65  H          0.06330000       0.66620000       0.47510000
    66  H          0.43670000       0.33380000       0.97510000
    67  H          0.56330000       0.83380000       0.52490000
    68  H          0.93670000       0.16620000       0.02490000
    69  C          0.27992000       0.56857150       0.42874700
    70  C          0.22008000       0.43142850       0.92874700
    71  C          0.77992000       0.93142850       0.57125300
    72  C          0.72008000       0.06857150       0.07125300
    73  H          0.18810000       0.49810000       0.42950000
    74  H          0.31190000       0.50190000       0.92950000
    75  H          0.68810000       0.00190000       0.57050000
    76  H          0.81190000      -0.00190000       0.07050000
    77  C          0.49762000       0.52755150       0.44213700
    78  C          0.00238000       0.47244850       0.94213700
    79  C         -0.00238000       0.97244850       0.55786300
    80  C          0.50238000       0.02755150       0.05786300
    81  H          0.58140000       0.60130000       0.44470000
    82  H          0.91860000       0.39870000       0.94470000
    83  H          0.08140000       0.89870000       0.55530000
    84  H          0.41860000       0.10130000       0.05530000
    85  C          0.51542000       0.46539140       0.50512700
    86  C         -0.01542000       0.53460860       0.00512700
    87  C          0.01542000       0.03460860       0.49487300
    88  C          0.48458000       0.96539140      -0.00512700
    89  C          0.58703000       0.45268180       0.38976700
    90  C          0.91297000       0.54731820       0.88976700
    91  C          0.08703000       0.04731820       0.61023300
    92  C          0.41297000       0.95268180       0.11023300
    93  H          0.73130000       0.43740000       0.39840000
    94  H          0.76870000       0.56260000       0.89840000
    95  H          0.23130000       0.06260000       0.60160000
    96  H          0.26870000       0.93740000       0.10160000
    97  H          0.51710000       0.37500000       0.38850000
    98  H         -0.01710000       0.62500000       0.88850000
    99  H          0.01710000       0.12500000       0.61150000
   100  H          0.48290000       0.87500000       0.11150000
   101  C          0.56903000       0.51205190       0.32683800
   102  C          0.93097000       0.48794810       0.82683800
   103  C          0.06903000      -0.01205190       0.67316200
   104  C          0.43097000       0.01205190       0.17316200
   105  H          0.65360000       0.58450000       0.32570000
   106  H          0.84640000       0.41550000       0.82570000
   107  H          0.15360000       0.91550000       0.67430000
   108  H          0.34640000       0.08450000       0.17430000
   109  H          0.61810000       0.45690000       0.29500000
   110  H          0.88190000       0.54310000       0.79500000
   111  H          0.11810000       0.04310000       0.70500000
   112  H          0.38190000       0.95690000       0.20500000
   113  C          0.35013000       0.54462170       0.31430800
   114  C          0.14987000       0.45537830       0.81430800
   115  C          0.85013000       0.95537830       0.68569200
   116  C          0.64987000       0.04462170       0.18569200
   117  C          0.27342000       0.62502150       0.36602700
   118  C          0.22658000       0.37497850       0.86602700
   119  C          0.77342000       0.87497850       0.63397300
   120  C          0.72658000       0.12502150       0.13397300
   121  H          0.36880000       0.69380000       0.36770000
   122  H          0.13120000       0.30620000       0.86770000
   123  H          0.86880000       0.80620000       0.63230000
   124  H          0.63120000       0.19380000       0.13230000
   125  C          0.07402000       0.67496170       0.34091800
   126  C          0.42598000       0.32503830       0.84091800
   127  C          0.57402000       0.82503830       0.65908200
   128  C          0.92598000       0.17496170       0.15908200
   129  H          0.03250000       0.74750000       0.36310000
   130  H          0.46750000       0.25250000       0.86310000
   131  H          0.53250000       0.75250000       0.63690000
   132  H          0.96750000       0.24750000       0.13690000
   133  H          0.96450000       0.61530000       0.34330000
   134  H          0.53550000       0.38470000       0.84330000
   135  H          0.46450000       0.88470000       0.65670000
   136  H          0.03550000       0.11530000       0.15670000
   137  C          0.12863000       0.70338180       0.27419900
   138  C          0.37137000       0.29661820       0.77419900
   139  C          0.62863000       0.79661820       0.72580100
   140  C          0.87137000       0.20338180       0.22580100
   141  H          0.01520000       0.68340000       0.24670000
   142  H          0.48480000       0.31660000       0.74670000
   143  H          0.51520000       0.81660000       0.75330000
   144  H         -0.01520000       0.18340000       0.25330000
   145  H          0.16150000       0.78870000       0.26940000
   146  H          0.33850000       0.21130000       0.76940000
   147  H          0.66150000       0.71130000       0.73060000
   148  H          0.83850000       0.28870000       0.23060000
   149  C          0.31173000       0.62660180       0.26017800
   150  C          0.18827000       0.37339820       0.76017800
   151  C          0.81173000       0.87339820       0.73982200
   152  C          0.68827000       0.12660180       0.23982200
   153  C          0.21763000       0.43329170       0.30315900
   154  C          0.28237000       0.56670830       0.80315900
   155  C          0.71763000       0.06670830       0.69684100
   156  C          0.78237000       0.93329170       0.19684100
   157  H          0.08290000       0.45810000       0.28980000
   158  H          0.41710000       0.54190000       0.78980000
   159  H          0.58290000       0.04190000       0.71020000
   160  H          0.91710000       0.95810000       0.21020000
   161  H          0.20630000       0.38760000       0.34100000
   162  H          0.29370000       0.61240000       0.84100000
   163  H          0.70630000       0.11240000       0.65900000
   164  H          0.79370000       0.88760000       0.15900000
   165  H          0.27970000       0.38380000       0.27160000
   166  H          0.22030000       0.61620000       0.77160000
   167  H          0.77970000       0.11620000       0.72840000
   168  H          0.72030000       0.88380000       0.22840000
   169  C          0.42603000       0.33894150       0.50327800
   170  C          0.07397000       0.66105850       0.00327800
   171  C          0.92603000       0.16105850       0.49672200
   172  C          0.57397000       0.83894150      -0.00327800
   173  H          0.42130000       0.30630000       0.54460000
   174  H          0.07870000       0.69370000       0.04460000
   175  H          0.92130000       0.19370000       0.45540000
   176  H          0.57870000       0.80630000       0.95540000
   177  H          0.51080000       0.28810000       0.47760000
   178  H         -0.01080000       0.71190000       0.97760000
   179  H          0.01080000       0.21190000       0.52240000
   180  H          0.48920000       0.78810000       0.02240000
   181  H          0.28920000       0.34200000       0.48640000
   182  H          0.21080000       0.65800000       0.98640000
   183  H          0.78920000       0.15800000       0.51360000
   184  H          0.71080000       0.84200000       0.01360000
   185  O          0.69752000       0.46515150       0.69454600
   186  O          0.80248000       0.53484850       0.19454600
   187  O          0.19752000       0.03484850       0.30545400
   188  O          0.30248000       0.96515150       0.80545400
   189  H          0.82340000       0.44420000       0.69861200
   190  H          0.67660000       0.55580000       0.19861200
   191  H          0.32340000       0.05580000       0.30138800
   192  H          0.17660000       0.94420000       0.80138800
   193  O          0.41162000       0.63227150       0.21401600
   194  O          0.08838000       0.36772850       0.71401600
   195  O          0.91162000       0.86772850       0.78598400
   196  O          0.58838000       0.13227150       0.28598400
