data_ZOYMOP03
_symmetry_space_group_name_H-M    'P1'
_symmetry_Int_Tables_number       1
loop_
_symmetry_equiv_pos_site_id
_symmetry_equiv_pos_as_xyz
1 x,y,z
_cell_length_a                   6.155715
_cell_length_b                   44.34413
_cell_length_c                   6.206615
_cell_angle_alpha                90.0
_cell_angle_beta                 106.5496
_cell_angle_gamma                90.0
loop_
_atom_site_label
_atom_site_type_symbol
_atom_site_fract_x
_atom_site_fract_y
_atom_site_fract_z
     1  O          0.88323000       0.60424400       0.53723000
     2  O          0.11677000       0.10424400       0.46277000
     3  H          0.81160000       0.60118000       0.38860000
     4  H          0.18840000       0.10118000       0.61140000
     5  O          0.87853000       0.84491500       0.89073000
     6  O          0.12147000       0.34491500       0.10927000
     7  C          0.75435000       0.68760600       0.47654000
     8  C          0.24565000       0.18760600       0.52346000
     9  H          0.62490000       0.69890000       0.37870000
    10  H          0.37510000       0.19890000       0.62130000
    11  H          0.89300000       0.69430000       0.43950000
    12  H          0.10700000       0.19430000       0.56050000
    13  C          0.71885000       0.65411600       0.42315000
    14  C          0.28115000       0.15411600       0.57685000
    15  H          0.57560000       0.64740000       0.45050000
    16  H          0.42440000       0.14740000       0.54950000
    17  H          0.70680000       0.65060000       0.26260000
    18  H          0.29320000       0.15060000       0.73740000
    19  C          0.91515000       0.63601600       0.56875000
    20  C          0.08485000       0.13601600       0.43125000
    21  H          0.05720000       0.64200000       0.53230000
    22  H          0.94280000       0.14200000       0.46770000
    23  C          0.94365000       0.64209600       0.81745000
    24  C          0.05635000       0.14209600       0.18255000
    25  H          0.81290000       0.63340000       0.85880000
    26  H          0.18710000       0.13340000       0.14120000
    27  H          0.08220000       0.63180000       0.90800000
    28  H          0.91780000       0.13180000       0.09200000
    29  C          0.96084000       0.67537600       0.87464000
    30  C          0.03916000       0.17537600       0.12536000
    31  C          0.12344000       0.68579600       0.04874000
    32  C          0.87656000       0.18579600       0.95126000
    33  H          0.23090000       0.67170000       0.13220000
    34  H          0.76910000       0.17170000       0.86780000
    35  C          0.15054000       0.71801600       0.12365000
    36  C          0.84946000       0.21801600       0.87635000
    37  H          0.28310000       0.72670000       0.08570000
    38  H          0.71690000       0.22670000       0.91430000
    39  H          0.18160000       0.71870000       0.28910000
    40  H          0.81840000       0.21870000       0.71090000
    41  C          0.94214000       0.73731600       0.01634000
    42  C          0.05786000       0.23731600      -0.01634000
    43  H          0.82300000       0.73300000       0.09310000
    44  H          0.17700000       0.23300000       0.90690000
    45  C          0.84754000       0.72953600       0.76484000
    46  C          0.15246000       0.22953600       0.23516000
    47  H         -0.02480000       0.73250000       0.69720000
    48  H          0.02480000       0.23250000       0.30280000
    49  C          0.77724000       0.69579600       0.72564000
    50  C          0.22276000       0.19579600       0.27436000
    51  C          0.65905000       0.75139600       0.64164000
    52  C          0.34095000       0.25139600       0.35836000
    53  H          0.52180000       0.74720000       0.68970000
    54  H          0.47820000       0.24720000       0.31030000
    55  H          0.62100000       0.74730000       0.47820000
    56  H          0.37900000       0.24730000       0.52180000
    57  C          0.71945000       0.78498600       0.68224000
    58  C          0.28055000       0.28498600       0.31776000
    59  H          0.83990000       0.79030000       0.61210000
    60  H          0.16010000       0.29030000       0.38790000
    61  H          0.58450000       0.79750000       0.61180000
    62  H          0.41550000       0.29750000       0.38820000
    63  C          0.80064000       0.79146600       0.93304000
    64  C          0.19936000       0.29146600       0.06696000
    65  C          0.00054000       0.77052600       0.04124000
    66  C         -0.00054000       0.27052600       0.95876000
    67  H          0.11390000       0.77390000       0.95600000
    68  H          0.88610000       0.27390000       0.04400000
    69  C          0.10524000       0.78419600       0.27475000
    70  C          0.89476000       0.28419600       0.72525000
    71  H          0.26600000       0.77820000       0.33520000
    72  H          0.73400000       0.27820000       0.66480000
    73  H          0.02120000       0.77780000       0.38120000
    74  H         -0.02120000       0.27780000       0.61880000
    75  C          0.08325000       0.81850600       0.23335000
    76  C          0.91675000       0.31850600       0.76665000
    77  H          0.02750000       0.82860000       0.34980000
    78  H         -0.02750000       0.32860000       0.65020000
    79  H          0.23110000       0.82740000       0.23470000
    80  H          0.76890000       0.32740000       0.76530000
    81  C          0.91245000       0.82180600       0.00195000
    82  C          0.08755000       0.32180600      -0.00195000
    83  C          0.60394000       0.78986700       0.03985000
    84  C          0.39606000       0.28986700       0.96015000
    85  H          0.65590000       0.79700000       0.19540000
    86  H          0.34410000       0.29700000       0.80460000
    87  H          0.55160000       0.76900000       0.03760000
    88  H          0.44840000       0.26900000       0.96240000
    89  H          0.47880000       0.80260000       0.95420000
    90  H          0.52120000       0.30260000       0.04580000
    91  C          0.55184000       0.68933600       0.77915000
    92  C          0.44816000       0.18933600       0.22085000
    93  H          0.52880000       0.66750000       0.78290000
    94  H          0.47120000       0.16750000       0.21710000
    95  H          0.42640000       0.69840000       0.66280000
    96  H          0.57360000       0.19840000       0.33720000
    97  H          0.55700000       0.69800000       0.92570000
    98  H          0.44300000       0.19800000       0.07430000
    99  O          0.35974000       0.35004400       0.58664000
   100  O          0.64026000       0.85004400       0.41336000
   101  H          0.28060000       0.35019000       0.44960000
   102  H          0.71940000       0.85019000       0.55040000
   103  O          0.64674000       0.58834500       0.09224000
   104  O          0.35326000       0.08834500       0.90776000
   105  C          0.53015000       0.42011600       0.93255000
   106  C          0.46985000       0.92011600       0.06745000
   107  H          0.65390000       0.42330000       0.07260000
   108  H          0.34610000       0.92330000       0.92740000
   109  H          0.38520000       0.42440000       0.96610000
   110  H          0.61480000       0.92440000       0.03390000
   111  C          0.53185000       0.38709600       0.86365000
   112  C          0.46815000       0.88709600       0.13635000
   113  H          0.68150000       0.38200000       0.84390000
   114  H          0.31850000       0.88200000       0.15610000
   115  H          0.50670000       0.37400000      -0.01620000
   116  H          0.49330000       0.87400000       0.01620000
   117  C          0.34865000       0.38121600       0.64645000
   118  C          0.65135000       0.88121600       0.35355000
   119  H          0.19730000       0.38530000       0.67020000
   120  H          0.80270000       0.88530000       0.32980000
   121  C          0.38005000       0.40191600       0.46245000
   122  C          0.61995000       0.90191600       0.53755000
   123  H          0.52290000       0.39660000       0.42820000
   124  H          0.47710000       0.89660000       0.57180000
   125  H          0.25370000       0.39880000       0.32430000
   126  H          0.74630000       0.89880000       0.67570000
   127  C          0.38754000       0.43468600       0.52884000
   128  C          0.61246000       0.93468600       0.47116000
   129  C          0.25055000       0.45485600       0.39875000
   130  C          0.74945000       0.95485600       0.60125000
   131  H          0.14380000       0.44760000       0.26620000
   132  H          0.85620000       0.94760000       0.73380000
   133  C          0.25135000       0.48794600       0.44444000
   134  C          0.74865000       0.98794600       0.55556000
   135  H          0.11580000       0.49310000       0.49250000
   136  H          0.88420000       0.99310000       0.50750000
   137  H          0.24210000       0.49910000       0.30400000
   138  H          0.75790000      -0.00090000       0.69600000
   139  C          0.46444000       0.49785600       0.62654000
   140  C          0.53556000      -0.00214400       0.37346000
   141  H          0.59630000       0.49750000       0.56260000
   142  H          0.40370000      -0.00250000       0.43740000
   143  C          0.51054000       0.47552600       0.82645000
   144  C          0.48946000       0.97552600       0.17355000
   145  H          0.36560000       0.47410000       0.86850000
   146  H          0.63440000       0.97410000       0.13150000
   147  C          0.55864000       0.44299600       0.75314000
   148  C          0.44136000       0.94299600       0.24686000
   149  C          0.69005000       0.48651600       0.03774000
   150  C          0.30995000       0.98651600       0.96226000
   151  H          0.68600000       0.47330000       0.16520000
   152  H          0.31400000       0.97330000       0.83480000
   153  H          0.84150000       0.48430000       0.01360000
   154  H          0.15850000       0.98430000      -0.01360000
   155  C          0.66025000       0.51931600       0.10214000
   156  C          0.33975000       0.01931600       0.89786000
   157  H          0.52210000       0.52110000       0.15280000
   158  H          0.47790000       0.02110000       0.84720000
   159  H          0.79180000       0.52550000       0.22790000
   160  H          0.20820000       0.02550000       0.77210000
   161  C          0.64054000       0.53991600       0.90234000
   162  C          0.35946000       0.03991600       0.09766000
   163  C          0.43744000       0.52951600       0.70764000
   164  C          0.56256000       0.02951600       0.29236000
   165  H          0.30570000       0.52850000       0.77160000
   166  H          0.69430000       0.02850000       0.22840000
   167  C          0.38885000       0.55620600       0.54355000
   168  C          0.61115000       0.05620600       0.45645000
   169  H          0.23230000       0.55540000       0.44200000
   170  H          0.76770000       0.05540000       0.55800000
   171  H          0.49710000       0.55680000       0.45240000
   172  H          0.50290000       0.05680000       0.54760000
   173  C          0.42115000       0.58332600       0.70365000
   174  C          0.57885000       0.08332600       0.29635000
   175  H          0.48850000       0.60050000       0.64370000
   176  H          0.51150000       0.10050000       0.35630000
   177  H          0.27390000       0.58970000       0.72340000
   178  H          0.72610000       0.08970000       0.27660000
   179  C          0.57875000       0.57269700       0.92425000
   180  C          0.42125000       0.07269700       0.07575000
   181  C          0.86644000       0.54125700       0.83935000
   182  C          0.13356000       0.04125700       0.16065000
   183  H          0.85300000       0.55600000       0.71830000
   184  H          0.14700000       0.05600000       0.28170000
   185  H          0.89990000       0.52130000       0.78840000
   186  H          0.10010000       0.02130000       0.21160000
   187  H         -0.01090000       0.54730000       0.97110000
   188  H          0.01090000       0.04730000       0.02890000
   189  C          0.79945000       0.44044700       0.72625000
   190  C          0.20055000       0.94044700       0.27375000
   191  H          0.81520000       0.42110000       0.65540000
   192  H          0.18480000       0.92110000       0.34460000
   193  H          0.91110000       0.44160000       0.87430000
   194  H          0.08890000       0.94160000       0.12570000
   195  H          0.82500000       0.45700000       0.63160000
   196  H          0.17500000       0.95700000       0.36840000
