data_ZULGEU05
_symmetry_space_group_name_H-M    'P1'
_symmetry_Int_Tables_number       1
loop_
_symmetry_equiv_pos_site_id
_symmetry_equiv_pos_as_xyz
1 x,y,z
_cell_length_a                   10.96695
_cell_length_b                   11.65786
_cell_length_c                   15.81058
_cell_angle_alpha                90.9492
_cell_angle_beta                 106.4941
_cell_angle_gamma                94.6802
loop_
_atom_site_label
_atom_site_type_symbol
_atom_site_fract_x
_atom_site_fract_y
_atom_site_fract_z
     1  S          0.88680400       0.39542400       0.34888300
     2  S          0.11319600       0.60457600       0.65111700
     3  O          0.59026140       0.01616130       0.89147900
     4  O          0.40973860       0.98383870       0.10852100
     5  O          0.85482130       0.50526110       0.31556100
     6  O          0.14517870       0.49473890       0.68443900
     7  O          0.01290110       0.38144120       0.40201900
     8  O         -0.01290110       0.61855880       0.59798100
     9  O          0.70017140       0.11706140       0.50407110
    10  O          0.29982860       0.88293860       0.49592890
    11  N          0.75232160       0.06693140       0.04140100
    12  N          0.24767840       0.93306860       0.95859900
    13  H          0.68020000       0.07451700      -0.00041400
    14  H          0.31980000       0.92548300       0.00041400
    15  N          0.78739140       0.36240130       0.40611100
    16  N          0.21260860       0.63759870       0.59388900
    17  H          0.73530000       0.41160000       0.41110000
    18  H          0.26470000       0.58840000       0.58890000
    19  N          0.67385160       0.21805160       0.45717130
    20  N          0.32614840       0.78194840       0.54282870
    21  C          0.65194180       0.93225830       0.88180870
    22  C          0.34805820       0.06774170       0.11819130
    23  C          0.60802000       0.85812810       0.80400860
    24  C          0.39198000       0.14187190       0.19599140
    25  H          0.53460000       0.87280000       0.76030000
    26  H          0.46540000       0.12720000       0.23970000
    27  C          0.67092000       0.76824810       0.79333860
    28  C          0.32908000       0.23175190       0.20666140
    29  H          0.63950000       0.72220000       0.74190000
    30  H          0.36050000       0.27780000       0.25810000
    31  C          0.78411190       0.73935830       0.85717870
    32  C          0.21588810       0.26064170       0.14282130
    33  C          0.84542000       0.64215820       0.84443850
    34  C          0.15458000       0.35784180       0.15556150
    35  H          0.81170000       0.59600000       0.79320000
    36  H          0.18830000       0.40400000       0.20680000
    37  C          0.95212000       0.61406810       0.90476830
    38  C          0.04788000       0.38593190       0.09523170
    39  H         -0.00900000       0.54900000       0.89540000
    40  H          0.00900000       0.45100000       0.10460000
    41  C          0.00282000       0.68287810       0.98038840
    42  C         -0.00282000       0.31712190       0.01961160
    43  H          0.07660000       0.66430000       0.02190000
    44  H          0.92340000       0.33570000       0.97810000
    45  C          0.94542000       0.77866820      -0.00504140
    46  C          0.05458000       0.22133180       0.00504140
    47  H          0.98140000       0.82400000       0.04640000
    48  H          0.01860000       0.17600000       0.95360000
    49  C          0.83449170       0.80985850       0.93468880
    50  C          0.16550830       0.19014150       0.06531120
    51  C          0.76732170       0.90904850       0.94756880
    52  C          0.23267830       0.09095150       0.05243120
    53  C          0.81031180       0.97895840       0.02402120
    54  C          0.18968820       0.02104160       0.97597880
    55  H          0.88500000       0.96250000       0.06560000
    56  H          0.11500000       0.03750000       0.93440000
    57  C          0.78946170       0.14147150       0.11676110
    58  C          0.21053830       0.85852850       0.88323890
    59  C          0.90808170       0.14470160       0.17804120
    60  C          0.09191830       0.85529840       0.82195880
    61  H          0.96760000       0.09580000       0.17070000
    62  H          0.03240000       0.90420000       0.82930000
    63  C          0.93782160       0.22097160       0.25029120
    64  C          0.06217840       0.77902840       0.74970880
    65  H          0.01710000       0.22300000       0.29220000
    66  H         -0.01710000       0.77700000       0.70780000
    67  C          0.84949160       0.29414140       0.26012110
    68  C          0.15050840       0.70585860       0.73987890
    69  C          0.73010180       0.28968170       0.19914120
    70  C          0.26989820       0.71031830       0.80085880
    71  H          0.67020000       0.33800000       0.20660000
    72  H          0.32980000       0.66200000       0.79340000
    73  C          0.70069190       0.21387170       0.12786120
    74  C          0.29930810       0.78612830       0.87213880
    75  H          0.62070000       0.21090000       0.08670000
    76  H          0.37930000       0.78910000       0.91330000
    77  C          0.78316170       0.25814170       0.44712120
    78  C          0.21683830       0.74185830       0.55287880
    79  C          0.88114180       0.18787180       0.48480130
    80  C          0.11885820       0.81212820       0.51519870
    81  H          0.96650000       0.19860000       0.48570000
    82  H          0.03350000       0.80140000       0.51430000
    83  C          0.82442000       0.10215180       0.51898130
    84  C          0.17558000       0.89784820       0.48101870
    85  C          0.86802000      -0.00032000       0.56858170
    86  C          0.13198000       0.00032000       0.43141830
    87  H          0.83560000       0.93150000       0.53150000
    88  H          0.16440000       0.06850000       0.46850000
    89  H          0.83710000      -0.00400000       0.61960000
    90  H          0.16290000       0.00400000       0.38040000
    91  H          0.95960000       0.00490000       0.58690000
    92  H          0.04040000      -0.00490000       0.41310000
    93  S          0.26524400       0.07372400       0.72643300
    94  S          0.73475600       0.92627600       0.27356700
    95  O          0.54354120       0.42588110       0.36462900
    96  O          0.45645880       0.57411890       0.63537100
    97  O          0.29298140       0.96139890       0.70664900
    98  O          0.70701860       0.03860110       0.29335100
    99  O          0.14101120       0.09636120       0.73071900
   100  O          0.85898880       0.90363880       0.26928100
   101  O          0.42741140       0.32377130       0.98648100
   102  O          0.57258860       0.67622870       0.01351900
   103  N          0.39145140       0.37348130       0.45903900
   104  N          0.60854860       0.62651870       0.54096100
   105  H          0.45551800       0.35631600       0.44321200
   106  H          0.54448200       0.64368400       0.55678800
   107  N          0.36471150       0.10910140       0.82240100
   108  N          0.63528850       0.89089860       0.17759900
   109  H          0.42420000       0.06460000       0.84260000
   110  H          0.57580000       0.93540000       0.15740000
   111  N          0.45315160       0.22191160       0.94806110
   112  N          0.54684840       0.77808840       0.05193890
   113  C          0.47131160       0.50062150       0.32745110
   114  C          0.52868840       0.49937850       0.67254890
   115  C          0.49695180       0.56441170       0.25708130
   116  C          0.50304820       0.43558830       0.74291870
   117  H          0.56670000       0.54940000       0.23750000
   118  H          0.43330000       0.45060000       0.76250000
   119  C          0.42235190       0.64543180       0.21881130
   120  C          0.57764810       0.35456820       0.78118870
   121  H          0.44200000       0.68470000       0.17300000
   122  H          0.55800000       0.31530000       0.82700000
   123  C          0.31405170       0.67436160       0.24513120
   124  C          0.68594830       0.32563840       0.75486880
   125  C          0.24302000       0.76512190       0.20660140
   126  C          0.75698000       0.23487810       0.79339860
   127  H          0.26730000       0.80740000       0.16380000
   128  H          0.73270000       0.19260000       0.83620000
   129  C          0.13942000       0.79152000       0.23121150
   130  C          0.86058000       0.20848000       0.76878850
   131  H          0.09390000       0.85240000       0.20620000
   132  H          0.90610000       0.14760000       0.79380000
   133  C          0.10192000       0.72762000       0.29332140
   134  C          0.89808000       0.27238000       0.70667860
   135  H          0.02910000       0.74400000       0.30850000
   136  H          0.97090000       0.25600000       0.69150000
   137  C          0.17027180       0.64024170       0.33313120
   138  C          0.82972820       0.35975830       0.66686880
   139  H          0.14340000       0.59880000       0.37530000
   140  H          0.85660000       0.40120000       0.62470000
   141  C          0.27990150       0.61204140       0.31156100
   142  C          0.72009850       0.38795860       0.68843900
   143  C          0.35921150       0.52298140       0.35363100
   144  C          0.64078850       0.47701860       0.64636900
   145  C          0.32702150       0.45763140       0.41800110
   146  C          0.67297850       0.54236860       0.58199890
   147  H          0.25450000       0.47420000       0.43360000
   148  H          0.74550000       0.52580000       0.56640000
   149  C          0.35944150       0.30506140       0.52348100
   150  C          0.64055850       0.69493860       0.47651900
   151  C          0.25976160       0.32669150       0.55733110
   152  C          0.74023840       0.67330850       0.44266890
   153  H          0.21120000       0.38790000       0.53760000
   154  H          0.78880000       0.61210000       0.46240000
   155  C          0.23294150       0.25695150       0.62047110
   156  C          0.76705850       0.74304850       0.37952890
   157  H          0.16640000       0.27140000       0.64370000
   158  H          0.83360000       0.72860000       0.35630000
   159  C          0.30461150       0.16576140       0.64926110
   160  C          0.69538850       0.83423860       0.35073890
   161  C          0.40486170       0.14435160       0.61623120
   162  C          0.59513830       0.85564840       0.38376880
   163  H          0.45330000       0.08310000       0.63610000
   164  H          0.54670000       0.91690000       0.36390000
   165  C          0.43237170       0.21442160       0.55359120
   166  C          0.56762830       0.78557840       0.44640880
   167  H          0.50010000       0.20090000       0.53140000
   168  H          0.49990000       0.79910000       0.46860000
   169  C          0.36207160       0.20505160       0.87475110
   170  C          0.63792840       0.79494840       0.12524890
   171  C          0.27679190       0.29115170       0.86207130
   172  C          0.72320810       0.70884830       0.13792870
   173  H          0.20470000       0.29710000       0.81470000
   174  H          0.79530000       0.70290000       0.18530000
   175  C          0.32224190       0.36240180       0.93296140
   176  C          0.67775810       0.63759820       0.06703860
   177  C          0.28213000       0.47072000       0.96284190
   178  C          0.71787000       0.52928000       0.03715810
   179  H          0.35350000       0.52810000       0.97840000
   180  H          0.64650000       0.47190000       0.02160000
   181  H          0.25180000       0.45670000       0.01340000
   182  H          0.74820000       0.54330000       0.98660000
   183  H          0.21490000       0.49750000       0.91610000
   184  H          0.78510000       0.50250000       0.08390000
