data_ZULGEU04
_symmetry_space_group_name_H-M    'P1'
_symmetry_Int_Tables_number       1
loop_
_symmetry_equiv_pos_site_id
_symmetry_equiv_pos_as_xyz
1 x,y,z
_cell_length_a                   7.44916
_cell_length_b                   14.240211
_cell_length_c                   18.313116
_cell_angle_alpha                87.1916
_cell_angle_beta                 84.8955
_cell_angle_gamma                77.0805
loop_
_atom_site_label
_atom_site_type_symbol
_atom_site_fract_x
_atom_site_fract_y
_atom_site_fract_z
     1  S          0.41781100       0.20749500       0.17589400
     2  S          0.58218900       0.79250500       0.82410600
     3  O          0.67603000       0.15602130       0.59843110
     4  O          0.32397000       0.84397870       0.40156890
     5  O          0.33023000       0.30830130       0.17549110
     6  O          0.66977000       0.69169870       0.82450890
     7  O          0.32273000       0.13937140       0.15206120
     8  O          0.67727000       0.86062860       0.84793880
     9  O          0.88723000       0.96996860       0.10589130
    10  O          0.11277000       0.03003140       0.89410870
    11  N          0.66273000       0.09060160       0.47224130
    12  N          0.33727000       0.90939840       0.52775870
    13  H          0.63870000       0.13720000       0.50230000
    14  H          0.36130000       0.86280000       0.49770000
    15  N          0.60953000       0.20178160       0.12430130
    16  N          0.39047000       0.79821840       0.87569870
    17  H          0.62700000       0.25430000       0.10260000
    18  H          0.37300000       0.74570000       0.89740000
    19  N          0.71174000       0.03298190       0.12064170
    20  N          0.28826000       0.96701810       0.87935830
    21  C          0.76264000       0.07192000       0.61861180
    22  C          0.23736000       0.92808000       0.38138820
    23  C          0.82054000       0.05582000       0.69105180
    24  C          0.17946000       0.94418000       0.30894820
    25  H          0.80120000       0.10730000       0.72220000
    26  H          0.19880000       0.89270000       0.27780000
    27  C          0.90244000       0.96738000       0.71515170
    28  C          0.09756000       0.03262000       0.28484830
    29  H          0.93760000       0.95960000       0.76290000
    30  H          0.06240000       0.04040000       0.23710000
    31  C          0.93803000       0.88436810       0.67045170
    32  C          0.06197000       0.11563190       0.32954830
    33  C          0.01664000       0.79188000       0.69933180
    34  C          0.98336000       0.20812000       0.30066820
    35  H          0.04330000       0.78460000       0.74820000
    36  H          0.95670000       0.21540000       0.25180000
    37  C          0.05364000       0.71318000       0.65652000
    38  C          0.94636000       0.28682000       0.34348000
    39  H          0.10330000       0.65250000       0.67610000
    40  H          0.89670000       0.34750000       0.32390000
    41  C          0.01624000       0.72488000       0.58352000
    42  C          0.98376000       0.27512000       0.41648000
    43  H          0.04510000       0.67160000       0.55380000
    44  H          0.95490000       0.32840000       0.44620000
    45  C          0.93694000       0.81368000       0.55411180
    46  C          0.06306000       0.18632000       0.44588820
    47  H          0.91200000       0.81940000       0.50500000
    48  H          0.08800000       0.18060000       0.49500000
    49  C          0.89323000       0.89598820       0.59730160
    50  C          0.10677000       0.10401180       0.40269840
    51  C          0.80303000      -0.00782190       0.56993160
    52  C          0.19697000       0.00782190       0.43006840
    53  C          0.74943000       0.00631190       0.49891170
    54  C          0.25057000      -0.00631190       0.50108830
    55  H          0.77580000       0.95380000       0.46840000
    56  H          0.22420000       0.04620000       0.53160000
    57  C          0.60393000       0.11458190       0.40109160
    58  C          0.39607000       0.88541810       0.59890840
    59  C          0.54404000       0.21142000       0.38294170
    60  C          0.45596000       0.78858000       0.61705830
    61  H          0.54330000       0.25750000       0.41730000
    62  H          0.45670000       0.74250000       0.58270000
    63  C          0.48604000       0.23972000       0.31492180
    64  C          0.51396000       0.76028000       0.68507820
    65  H          0.44640000       0.30490000       0.30310000
    66  H          0.55360000       0.69510000       0.69690000
    67  C          0.48613000       0.17168190       0.26397160
    68  C          0.51387000       0.82831810       0.73602840
    69  C          0.54264000       0.07404190       0.28206170
    70  C          0.45736000       0.92595810       0.71793830
    71  H          0.53920000       0.02790000       0.24830000
    72  H          0.46080000       0.97210000       0.75170000
    73  C          0.60344000       0.04611190       0.35010170
    74  C          0.39656000       0.95388810       0.64989830
    75  H          0.64430000       0.98100000       0.36190000
    76  H          0.35570000       0.01900000       0.63810000
    77  C          0.74724000       0.11892000       0.11252160
    78  C          0.25276000       0.88108000       0.88747840
    79  C          0.93244000       0.11702000       0.09176170
    80  C          0.06756000       0.88298000       0.90823830
    81  H         -0.01260000       0.16930000       0.08190000
    82  H          0.01260000       0.83070000       0.91810000
    83  C          0.01404000       0.02322000       0.08919170
    84  C          0.98596000       0.97678000       0.91080830
    85  C          0.20704000       0.96768000       0.07562000
    86  C          0.79296000       0.03232000       0.92438000
    87  H          0.23600000       0.95960000       0.02380000
    88  H          0.76400000       0.04040000       0.97620000
    89  H          0.22000000       0.90560000       0.10000000
    90  H          0.78000000       0.09440000       0.90000000
    91  H          0.28980000       0.00190000       0.09420000
    92  H          0.71020000      -0.00190000       0.90580000
    93  S          0.84049100       0.71357500       0.35900500
    94  S          0.15950900       0.28642500       0.64099500
    95  O          0.26123000       0.64473150       0.93527870
    96  O          0.73877000       0.35526850       0.06472130
    97  O          0.82183000       0.81586120       0.36058120
    98  O          0.17817000       0.18413880       0.63941880
    99  O          0.93412000       0.65239130       0.41422110
   100  O          0.06588000       0.34760870       0.58577890
   101  O          0.56453000       0.46456130       0.39298120
   102  O          0.43547000       0.53543870       0.60701880
   103  N          0.62833000       0.70020150       0.36189140
   104  N          0.37167000       0.29979850       0.63810860
   105  H          0.54510000       0.75070000       0.35230000
   106  H          0.45490000       0.24930000       0.64770000
   107  N          0.17363000       0.58404160       0.06485140
   108  N          0.82637000       0.41595840       0.93514860
   109  H          0.18950000       0.63040000       0.03480000
   110  H          0.81050000       0.36960000       0.96520000
   111  N          0.68013000       0.52981160       0.37170150
   112  N          0.31987000       0.47018840       0.62829850
   113  C          0.30494000       0.55722000       0.91502820
   114  C          0.69506000       0.44278000       0.08497180
   115  C          0.38164000       0.53522000       0.84166810
   116  C          0.61836000       0.46478000       0.15833190
   117  H          0.39910000       0.58500000       0.80890000
   118  H          0.60090000       0.41500000       0.19110000
   119  C          0.42874000       0.44353000       0.81933810
   120  C          0.57126000       0.55647000       0.18066190
   121  H          0.48010000       0.43180000       0.77160000
   122  H          0.51990000       0.56820000       0.22840000
   123  C          0.40314000       0.36412000       0.86578810
   124  C          0.59686000       0.63588000       0.13421190
   125  C          0.44864000       0.26993000       0.83878000
   126  C          0.55136000       0.73007000       0.16122000
   127  H          0.50090000       0.25970000       0.79100000
   128  H          0.49910000       0.74030000       0.20900000
   129  C          0.41715000       0.19403000       0.88168000
   130  C          0.58285000       0.80597000       0.11832000
   131  H          0.44320000       0.13240000       0.86300000
   132  H          0.55680000       0.86760000       0.13700000
   133  C          0.34595000       0.20892000       0.95328000
   134  C          0.65405000       0.79108000       0.04672000
   135  H          0.32770000       0.15660000       0.98320000
   136  H          0.67230000       0.84340000       0.01680000
   137  C          0.30104000       0.30002000       0.98154810
   138  C          0.69896000       0.69998000       0.01845190
   139  H          0.25160000       0.30830000       0.02980000
   140  H          0.74840000       0.69170000       0.97020000
   141  C          0.32924000       0.38042000       0.93822820
   142  C          0.67076000       0.61958000       0.06177180
   143  C          0.28284000       0.47852000       0.96476830
   144  C          0.71716000       0.52148000       0.03523170
   145  C          0.21954000       0.49762000       0.03768170
   146  C          0.78046000       0.50238000       0.96231830
   147  H          0.20900000       0.44550000       0.06920000
   148  H          0.79100000       0.55450000       0.93080000
   149  C          0.10233000       0.61132000       0.13613170
   150  C          0.89767000       0.38868000       0.86386830
   151  C          0.04604000       0.70912000       0.14922180
   152  C          0.95396000       0.29088000       0.85077820
   153  H          0.06200000       0.75400000       0.11200000
   154  H          0.93800000       0.24600000       0.88800000
   155  C          0.96684000       0.73992000       0.21695180
   156  C          0.03316000       0.26008000       0.78304820
   157  H          0.92690000       0.80550000       0.22520000
   158  H          0.07310000       0.19450000       0.77480000
   159  C          0.94633000       0.67366190       0.27275160
   160  C          0.05367000       0.32633810       0.72724840
   161  C          0.00774000       0.57612000       0.26062170
   162  C         -0.00774000       0.42388000       0.73937830
   163  H         -0.00390000       0.53150000       0.29860000
   164  H          0.00390000       0.46850000       0.70140000
   165  C          0.08534000       0.54482000       0.19312180
   166  C          0.91466000       0.45518000       0.80687820
   167  H          0.12660000       0.47920000       0.18540000
   168  H          0.87340000       0.52080000       0.81460000
   169  C          0.56774000       0.61432190       0.37849150
   170  C          0.43226000       0.38567810       0.62150850
   171  C          0.38574000       0.60922000       0.40227170
   172  C          0.61426000       0.39078000       0.59772830
   173  H          0.28400000       0.66000000       0.41050000
   174  H          0.71600000       0.34000000       0.58950000
   175  C          0.39144000       0.51542000       0.41038170
   176  C          0.60856000       0.48458000       0.58961830
   177  C          0.25234000       0.45782000       0.43472000
   178  C          0.74766000       0.54218000       0.56528000
   179  H          0.24950000       0.41270000       0.39780000
   180  H          0.75050000       0.58730000       0.60220000
   181  H          0.13270000       0.50010000       0.44220000
   182  H          0.86730000       0.49990000       0.55780000
   183  H          0.28490000       0.42360000       0.47980000
   184  H          0.71510000       0.57640000       0.52020000
