data_ZULGEU01
_symmetry_space_group_name_H-M    'P1'
_symmetry_Int_Tables_number       1
loop_
_symmetry_equiv_pos_site_id
_symmetry_equiv_pos_as_xyz
1 x,y,z
_cell_length_a                   12.111618
_cell_length_b                   11.225715
_cell_length_c                   14.855718
_cell_angle_alpha                90.0
_cell_angle_beta                 94.5735
_cell_angle_gamma                90.0
loop_
_atom_site_label
_atom_site_type_symbol
_atom_site_fract_x
_atom_site_fract_y
_atom_site_fract_z
     1  S          0.77324500       0.57470500       0.91579600
     2  S          0.22675500       0.07470500       0.58420400
     3  S          0.22675500       0.42529500       0.08420400
     4  S          0.77324500       0.92529500       0.41579600
     5  O          0.62943170       0.95889820       0.17924130
     6  O          0.37056830       0.45889820       0.32075870
     7  O          0.37056830       0.04110180       0.82075870
     8  O          0.62943170       0.54110180       0.67924130
     9  O          0.68578140       0.66076140       0.90847880
    10  O          0.31421860       0.16076140       0.59152120
    11  O          0.31421860       0.33923860       0.09152120
    12  O          0.68578140       0.83923860       0.40847880
    13  O          0.87558140       0.60116140       0.96535890
    14  O          0.12441860       0.10116140       0.53464110
    15  O          0.12441860       0.39883860       0.03464110
    16  O          0.87558140       0.89883860       0.46535890
    17  O          0.97004180       0.35174180       0.70804860
    18  O          0.02995820       0.85174180       0.79195140
    19  O          0.02995820       0.64825820       0.29195140
    20  O          0.97004180       0.14825820       0.20804860
    21  N          0.59017180       0.14108170       0.07610130
    22  N          0.40982820       0.64108170       0.42389870
    23  N          0.40982820       0.85891830       0.92389870
    24  N          0.59017180       0.35891830       0.57610130
    25  H          0.63891900       0.09920000       0.10651600
    26  H          0.36108100       0.59920000       0.39348400
    27  H          0.36108100       0.90080000       0.89348400
    28  H          0.63891900       0.40080000       0.60651600
    29  N          0.79816180       0.54638190       0.81242870
    30  N          0.20183820       0.04638190       0.68757130
    31  N          0.20183820       0.45361810       0.18757130
    32  N          0.79816180       0.95361810       0.31242870
    33  H          0.74420000       0.55520000       0.77448300
    34  H          0.25580000       0.05520000       0.72551700
    35  H          0.25580000       0.44480000       0.22551700
    36  H          0.74420000       0.94480000       0.27448300
    37  N          0.87028190       0.41542000       0.71250850
    38  N          0.12971810       0.91542000       0.78749150
    39  N          0.12971810       0.58458000       0.28749150
    40  N          0.87028190       0.08458000       0.21250850
    41  C          0.52572000       0.93978000       0.17786170
    42  C          0.47428000       0.43978000       0.32213830
    43  C          0.47428000       0.06022000       0.82213830
    44  C          0.52572000       0.56022000       0.67786170
    45  C          0.48343000       0.84547000       0.22993180
    46  C          0.51657000       0.34547000       0.27006820
    47  C          0.51657000       0.15453000       0.77006820
    48  C          0.48343000       0.65453000       0.72993180
    49  H          0.53240000       0.79900000       0.26630000
    50  H          0.46760000       0.29900000       0.23370000
    51  H          0.46760000       0.20100000       0.73370000
    52  H          0.53240000       0.70100000       0.76630000
    53  C          0.37493000       0.82287000       0.22727180
    54  C          0.62507000       0.32287000       0.27272820
    55  C          0.62507000       0.17713000       0.77272820
    56  C          0.37493000       0.67713000       0.72727180
    57  H          0.35070000       0.76100000       0.26240000
    58  H          0.64930000       0.26100000       0.23760000
    59  H          0.64930000       0.23900000       0.73760000
    60  H          0.35070000       0.73900000       0.76240000
    61  C          0.29442000       0.88948000       0.17298170
    62  C          0.70558000       0.38948000       0.32701830
    63  C          0.70558000       0.11052000       0.82701830
    64  C          0.29442000       0.61052000       0.67298170
    65  C          0.18193000       0.86307000       0.17222000
    66  C          0.81807000       0.36307000       0.32778000
    67  C          0.81807000       0.13693000       0.82778000
    68  C          0.18193000       0.63693000       0.67222000
    69  H          0.15920000       0.80190000       0.20880000
    70  H          0.84080000       0.30190000       0.29120000
    71  H          0.84080000       0.19810000       0.79120000
    72  H          0.15920000       0.69810000       0.70880000
    73  C          0.10513000       0.92407000       0.11973000
    74  C          0.89487000       0.42407000       0.38027000
    75  C          0.89487000       0.07593000       0.88027000
    76  C          0.10513000       0.57593000       0.61973000
    77  H          0.03040000       0.90500000       0.11980000
    78  H          0.96960000       0.40500000       0.38020000
    79  H          0.96960000       0.09500000       0.88020000
    80  H          0.03040000       0.59500000       0.61980000
    81  C          0.13983000       0.01613000       0.06543000
    82  C          0.86017000       0.51613000       0.43457000
    83  C          0.86017000       0.98387000       0.93457000
    84  C          0.13983000       0.48387000       0.56543000
    85  H          0.08760000       0.05850000       0.02890000
    86  H          0.91240000       0.55850000       0.47110000
    87  H          0.91240000       0.94150000       0.97110000
    88  H          0.08760000       0.44150000       0.52890000
    89  C          0.24962000       0.04462000       0.06512000
    90  C          0.75038000       0.54462000       0.43488000
    91  C          0.75038000       0.95538000       0.93488000
    92  C          0.24962000       0.45538000       0.56512000
    93  H          0.27090000       0.10550000       0.02770000
    94  H          0.72910000       0.60550000       0.47230000
    95  H          0.72910000       0.89450000       0.97230000
    96  H          0.27090000       0.39450000       0.52770000
    97  C          0.33032000       0.98408000       0.11984160
    98  C          0.66968000       0.48408000       0.38015840
    99  C          0.66968000       0.01592000       0.88015840
   100  C          0.33032000       0.51592000       0.61984160
   101  C          0.44822000       0.01122000       0.12377140
   102  C          0.55178000       0.51122000       0.37622860
   103  C          0.55178000      -0.01122000       0.87622860
   104  C          0.44822000       0.48878000       0.62377140
   105  C          0.48562000       0.10962000       0.07764150
   106  C          0.51438000       0.60962000       0.42235850
   107  C          0.51438000       0.89038000       0.92235850
   108  C          0.48562000       0.39038000       0.57764150
   109  H          0.43280000       0.15640000       0.04550000
   110  H          0.56720000       0.65640000       0.45450000
   111  H          0.56720000       0.84360000       0.95450000
   112  H          0.43280000       0.34360000       0.54550000
   113  C          0.63132000       0.24252000       0.03433140
   114  C          0.36868000       0.74252000       0.46566860
   115  C          0.36868000       0.75748000       0.96566860
   116  C          0.63132000       0.25748000       0.53433140
   117  C          0.56322000       0.32172000       0.98482830
   118  C          0.43678000       0.82172000       0.51517170
   119  C          0.43678000       0.67828000       0.01517170
   120  C          0.56322000       0.17828000       0.48482830
   121  H          0.48740000       0.30760000       0.97670000
   122  H          0.51260000       0.80760000       0.52330000
   123  H          0.51260000       0.69240000       0.02330000
   124  H          0.48740000       0.19240000       0.47670000
   125  C          0.60762000       0.42132000       0.94766830
   126  C          0.39238000       0.92132000       0.55233170
   127  C          0.39238000       0.57868000       0.05233170
   128  C          0.60762000       0.07868000       0.44766830
   129  H          0.56200000       0.47400000       0.91380000
   130  H          0.43800000       0.97400000       0.58620000
   131  H          0.43800000       0.52600000       0.08620000
   132  H          0.56200000       0.02600000       0.41380000
   133  C          0.72042000       0.44319190       0.96061850
   134  C          0.27958000       0.94319190       0.53938150
   135  C          0.27958000       0.55680810       0.03938150
   136  C          0.72042000       0.05680810       0.46061850
   137  C          0.78892000       0.36332000       0.00817150
   138  C          0.21108000       0.86332000       0.49182850
   139  C          0.21108000       0.63668000      -0.00817150
   140  C          0.78892000       0.13668000       0.50817150
   141  H          0.86480000       0.37700000       0.01570000
   142  H          0.13520000       0.87700000       0.48430000
   143  H          0.13520000       0.62300000       0.98430000
   144  H          0.86480000       0.12300000       0.51570000
   145  C          0.74412000       0.26262000       0.04461160
   146  C          0.25588000       0.76262000       0.45538840
   147  C          0.25588000       0.73738000       0.95538840
   148  C          0.74412000       0.23738000       0.54461160
   149  H          0.79020000       0.20810000       0.07620000
   150  H          0.20980000       0.70810000       0.42380000
   151  H          0.20980000       0.79190000       0.92380000
   152  H          0.79020000       0.29190000       0.57620000
   153  C          0.88322000       0.47112000       0.78956840
   154  C          0.11678000       0.97112000       0.71043160
   155  C          0.11678000       0.52888000       0.21043160
   156  C          0.88322000       0.02888000       0.28956840
   157  C          0.98442000       0.44552000       0.83648820
   158  C          0.01558000       0.94552000       0.66351180
   159  C          0.01558000       0.55448000       0.16351180
   160  C          0.98442000       0.05448000       0.33648820
   161  H          0.01040000       0.47350000       0.89320000
   162  H         -0.01040000       0.97350000       0.60680000
   163  H         -0.01040000       0.52650000       0.10680000
   164  H          0.01040000       0.02650000       0.39320000
   165  C          0.03612000       0.37263000       0.78318000
   166  C          0.96388000       0.87263000       0.71682000
   167  C          0.96388000       0.62737000       0.21682000
   168  C          0.03612000       0.12737000       0.28318000
   169  C          0.14633000       0.31413000       0.79098000
   170  C          0.85367000       0.81413000       0.70902000
   171  C          0.85367000       0.68587000       0.20902000
   172  C          0.14633000       0.18587000       0.29098000
   173  H          0.19160000       0.34930000       0.83990000
   174  H          0.80840000       0.84930000       0.66010000
   175  H          0.80840000       0.65070000       0.16010000
   176  H          0.19160000       0.15070000       0.33990000
   177  H          0.18110000       0.32460000       0.73570000
   178  H          0.81890000       0.82460000       0.76430000
   179  H          0.81890000       0.67540000       0.26430000
   180  H          0.18110000       0.17540000       0.23570000
   181  H          0.13740000       0.23060000       0.80240000
   182  H          0.86260000       0.73060000       0.69760000
   183  H          0.86260000       0.76940000       0.19760000
   184  H          0.13740000       0.26940000       0.30240000
