data_ZULGEU03
_symmetry_space_group_name_H-M    'P1'
_symmetry_Int_Tables_number       1
loop_
_symmetry_equiv_pos_site_id
_symmetry_equiv_pos_as_xyz
1 x,y,z
_cell_length_a                   8.35547
_cell_length_b                   10.00228
_cell_length_c                   12.79551
_cell_angle_alpha                67.2594
_cell_angle_beta                 80.7494
_cell_angle_gamma                86.8334
loop_
_atom_site_label
_atom_site_type_symbol
_atom_site_fract_x
_atom_site_fract_y
_atom_site_fract_z
     1  S          0.18764700       0.17013600       0.08655400
     2  S          0.81235300       0.82986400       0.91344600
     3  O          0.57953180       0.86621180       0.68852130
     4  O          0.42046820       0.13378820       0.31147870
     5  O          0.22502000       0.31143160       0.07760140
     6  O          0.77498000       0.68856840       0.92239860
     7  O          0.15262000       0.14719160      -0.01060120
     8  O          0.84738000       0.85280840       0.01060120
     9  O          0.42143000       0.70272000       0.22618180
    10  O          0.57857000       0.29728000       0.77381820
    11  N          0.67252000       0.90228190       0.47921150
    12  N          0.32748000       0.09771810       0.52078850
    13  H          0.67530000       0.92220000       0.53691900
    14  H          0.32470000       0.07780000       0.46308100
    15  N          0.34372000       0.07216190       0.13154140
    16  N          0.65628000       0.92783810       0.86845860
    17  H          0.42310000       0.11220000       0.14420000
    18  H          0.57690000       0.88780000       0.85580000
    19  N          0.43133000       0.84093000       0.22932000
    20  N          0.56867000       0.15907000       0.77068000
    21  C          0.47773000       0.77122000       0.69579180
    22  C          0.52227000       0.22878000       0.30420820
    23  C          0.37713000       0.69603000       0.80202000
    24  C          0.62287000       0.30397000       0.19798000
    25  H          0.38540000       0.71800000       0.86520000
    26  H          0.61460000       0.28200000       0.13480000
    27  C          0.27103000       0.59443000       0.81282000
    28  C          0.72897000       0.40557000       0.18718000
    29  H          0.20930000       0.54640000       0.88400000
    30  H          0.79070000       0.45360000       0.11600000
    31  C          0.24873000       0.55682000       0.71922000
    32  C          0.75127000       0.44318000       0.28078000
    33  C          0.13603000       0.45043000       0.73313000
    34  C          0.86397000       0.54957000       0.26687000
    35  H          0.07680000       0.40160000       0.80510000
    36  H          0.92320000       0.59840000       0.19490000
    37  C          0.11114000       0.41703000       0.64383000
    38  C          0.88886000       0.58297000       0.35617000
    39  H          0.03390000       0.34770000       0.65410000
    40  H          0.96610000       0.65230000       0.34590000
    41  C          0.20233000       0.48733000       0.53683000
    42  C          0.79767000       0.51267000       0.46317000
    43  H          0.18600000       0.46460000       0.47530000
    44  H          0.81400000       0.53540000       0.52470000
    45  C          0.31553000       0.58953000       0.52072000
    46  C          0.68447000       0.41047000       0.47928000
    47  H          0.37620000       0.63440000       0.44860000
    48  H          0.62380000       0.36560000       0.55140000
    49  C          0.34202000       0.62802000       0.61072190
    50  C          0.65798000       0.37198000       0.38927810
    51  C          0.46092000       0.73692000       0.59854180
    52  C          0.53908000       0.26308000       0.40145820
    53  C          0.56032000       0.80522000       0.49528180
    54  C          0.43968000       0.19478000       0.50471820
    55  H          0.54740000       0.78160000       0.43360000
    56  H          0.45260000       0.21840000       0.56640000
    57  C          0.78592000       0.96972000       0.38138170
    58  C          0.21408000       0.03028000       0.61861830
    59  C          0.79652000       0.93942000       0.28306180
    60  C          0.20348000       0.06058000       0.71693820
    61  H          0.72230000       0.87670000       0.27850000
    62  H          0.27770000       0.12330000       0.72150000
    63  C          0.91723000       0.00272000       0.19319170
    64  C          0.08277000      -0.00272000       0.80680830
    65  H          0.92610000       0.98090000       0.12810000
    66  H          0.07390000       0.01910000       0.87190000
    67  C          0.02582000       0.09862000       0.19818160
    68  C          0.97418000       0.90138000       0.80181840
    69  C          0.01212000       0.13362000       0.29443170
    70  C         -0.01212000       0.86638000       0.70556830
    71  H          0.08330000       0.19990000       0.29730000
    72  H          0.91670000       0.80010000       0.70270000
    73  C          0.89272000       0.06922000       0.38473170
    74  C          0.10728000       0.93078000       0.61526830
    75  H          0.88280000       0.09230000       0.44920000
    76  H          0.11720000       0.90770000       0.55080000
    77  C          0.35222000       0.92542000       0.15001170
    78  C          0.64778000       0.07458000       0.84998830
    79  C          0.29093000       0.84843000       0.09482000
    80  C          0.70907000       0.15157000       0.90518000
    81  H          0.23020000       0.88500000       0.03500000
    82  H          0.76980000       0.11500000       0.96500000
    83  C          0.33613000       0.71293000       0.14472000
    84  C          0.66387000       0.28707000       0.85528000
    85  C          0.31334000       0.57593000       0.12953000
    86  C          0.68666000       0.42407000       0.87047000
    87  H          0.41380000       0.54920000       0.09480000
    88  H          0.58620000       0.45080000       0.90520000
    89  H          0.23220000       0.58920000       0.08110000
    90  H          0.76780000       0.41080000       0.91890000
    91  H          0.27910000       0.50050000       0.20290000
    92  H          0.72090000       0.49950000       0.79710000
