data_ZULGEU
_symmetry_space_group_name_H-M    'P1'
_symmetry_Int_Tables_number       1
loop_
_symmetry_equiv_pos_site_id
_symmetry_equiv_pos_as_xyz
1 x,y,z
_cell_length_a                   8.37105
_cell_length_b                   10.00746
_cell_length_c                   12.81608
_cell_angle_alpha                67.2644
_cell_angle_beta                 80.7225
_cell_angle_gamma                86.9045
loop_
_atom_site_label
_atom_site_type_symbol
_atom_site_fract_x
_atom_site_fract_y
_atom_site_fract_z
     1  S          0.81294870       0.82956900       0.41309800
     2  S          0.18705130       0.17043100       0.58690200
     3  O          0.57836000       0.29653000       0.27393000
     4  O          0.42164000       0.70347000       0.72607000
     5  O          0.77566000       0.68787000       0.42252000
     6  O          0.22434000       0.31213000       0.57748000
     7  O          0.84737000       0.85297000       0.51074190
     8  O          0.15263000       0.14703000       0.48925810
     9  O          0.42084000       0.13443000       0.81158000
    10  O          0.57916000       0.86557000       0.18842000
    11  N          0.57025000       0.15834000       0.27094000
    12  N          0.42975000       0.84166000       0.72906000
    13  N          0.65686000       0.92746000       0.36883000
    14  N          0.34314000       0.07254000       0.63117000
    15  N          0.32724000       0.09723000       0.01952000
    16  N          0.67276000       0.90277000       0.98048000
    17  C          0.68654000       0.42404000       0.37014000
    18  C          0.31346000       0.57596000       0.62986000
    19  H          0.63370000       0.50100000       0.31580000
    20  H          0.36630000       0.49900000       0.68420000
    21  H          0.80010000       0.44590000       0.35760000
    22  H          0.19990000       0.55410000       0.64240000
    23  H          0.64040000       0.41410000       0.44630000
    24  H          0.35960000       0.58590000       0.55370000
    25  C          0.66445000       0.28625000       0.35544000
    26  C          0.33555000       0.71375000       0.64456000
    27  C          0.71015000       0.15124000       0.40473000
    28  C          0.28985000       0.84876000       0.59527000
    29  H          0.77100000       0.11440000       0.46430000
    30  H          0.22900000       0.88560000       0.53570000
    31  C          0.64885000       0.07554000       0.34953000
    32  C          0.35115000       0.92446000       0.65047000
    33  C          0.97356000       0.90096000       0.30243000
    34  C          0.02644000       0.09904000       0.69757000
    35  C         -0.01125000       0.86636000       0.20563000
    36  C          0.01125000       0.13364000       0.79437000
    37  H          0.91890000       0.79930000       0.20260000
    38  H          0.08110000       0.20070000       0.79740000
    39  C          0.10764000       0.93236000       0.11513000
    40  C          0.89236000       0.06764000       0.88487000
    41  H          0.11630000       0.91060000       0.05010000
    42  H          0.88370000       0.08940000       0.94990000
    43  C          0.21454000       0.03044000       0.11813000
    44  C          0.78546000       0.96956000       0.88187000
    45  C          0.20435000       0.06114000       0.21613000
    46  C          0.79565000       0.93886000       0.78387000
    47  H          0.27840000       0.12380000       0.22080000
    48  H          0.72160000       0.87620000       0.77920000
    49  C          0.08275000      -0.00304000       0.30613000
    50  C          0.91725000       0.00304000       0.69387000
    51  H          0.07400000       0.01890000       0.37100000
    52  H          0.92600000       0.98110000       0.62900000
    53  C          0.43965000       0.19414000       0.00473000
    54  C          0.56035000       0.80586000      -0.00473000
    55  C          0.53914000       0.26274000       0.90177000
    56  C          0.46086000       0.73726000       0.09823000
    57  C          0.52275000       0.22934000       0.80347000
    58  C          0.47725000       0.77066000       0.19653000
    59  C          0.62235000       0.30385000       0.69897000
    60  C          0.37765000       0.69615000       0.30103000
    61  H          0.61430000       0.28110000       0.63610000
    62  H          0.38570000       0.71890000       0.36390000
    63  C          0.72806000       0.40605000       0.68716000
    64  C          0.27194000       0.59395000       0.31284000
    65  H          0.78830000       0.45430000       0.61560000
    66  H          0.21170000       0.54570000       0.38440000
    67  C          0.75195000       0.44404000       0.78036000
    68  C          0.24805000       0.55596000       0.21964000
    69  C          0.86506000       0.54895000       0.76675000
    70  C          0.13494000       0.45105000       0.23325000
    71  H          0.92500000       0.59710000       0.69510000
    72  H          0.07500000       0.40290000       0.30490000
    73  C          0.88946000       0.58255000       0.85674000
    74  C          0.11054000       0.41745000       0.14326000
    75  H          0.96640000       0.65170000       0.84670000
    76  H          0.03360000       0.34830000       0.15330000
    77  C          0.79886000       0.51295000       0.96225000
    78  C          0.20114000       0.48705000       0.03775000
    79  H          0.81480000       0.53590000       0.02360000
    80  H          0.18520000       0.46410000       0.97640000
    81  C          0.68645000       0.41125000       0.97846000
    82  C          0.31355000       0.58875000       0.02154000
    83  H          0.62650000       0.36610000       0.05080000
    84  H          0.37350000       0.63390000       0.94920000
    85  C          0.65824000       0.37234000       0.88887000
    86  C          0.34176000       0.62766000       0.11113000
    87  H          0.62060000       0.90060000       0.32730000
    88  H          0.37940000       0.09940000       0.67270000
    89  H          0.45240000       0.21330000       0.06230000
    90  H          0.54760000       0.78670000       0.93770000
    91  H          0.36912000       0.09810000       0.88360000
    92  H          0.63088000       0.90190000       0.11640000
