data_ZZZMRW02
_symmetry_space_group_name_H-M    'P1'
_symmetry_Int_Tables_number       1
loop_
_symmetry_equiv_pos_site_id
_symmetry_equiv_pos_as_xyz
1 x,y,z
_cell_length_a                   14.0762
_cell_length_b                   5.7741
_cell_length_c                   18.3213
_cell_angle_alpha                90.0
_cell_angle_beta                 112.4753
_cell_angle_gamma                90.0
loop_
_atom_site_label
_atom_site_type_symbol
_atom_site_fract_x
_atom_site_fract_y
_atom_site_fract_z
     1  I          0.40329817       0.58225400       0.18834912
     2  I          0.59670183       0.08225400       0.31165088
     3  I          0.59670183       0.41774600       0.81165088
     4  I          0.40329817       0.91774600       0.68834912
     5  O          0.41470180       0.25535000       0.88172860
     6  O          0.58529820       0.75535000       0.61827140
     7  O          0.58529820       0.74465000       0.11827140
     8  O          0.41470180       0.24465000       0.38172860
     9  O          0.35392000       0.59664000       0.84081840
    10  O          0.64608000       0.09664000       0.65918160
    11  O          0.64608000       0.40336000       0.15918160
    12  O          0.35392000       0.90336000       0.34081840
    13  O          0.15452000       0.54305000       0.55885850
    14  O          0.84548000       0.04305000       0.94114150
    15  O          0.84548000       0.45695000       0.44114150
    16  O          0.15452000       0.95695000       0.05885850
    17  O          0.04842190       0.25795000       0.51229860
    18  O          0.95157810       0.75795000       0.98770140
    19  O          0.95157810       0.74205000       0.48770140
    20  O          0.04842190       0.24205000       0.01229860
    21  O          0.00946190       0.69025000       0.68255860
    22  O         -0.00946190       0.19025000       0.81744140
    23  O         -0.00946190       0.30975000       0.31744140
    24  O          0.00946190       0.80975000       0.18255860
    25  O          0.10223180       0.67585000       0.80724860
    26  O          0.89776820       0.17585000       0.69275140
    27  O          0.89776820       0.32415000       0.19275140
    28  O          0.10223180       0.82415000       0.30724860
    29  N          0.34732000       0.38665000       0.84003830
    30  N          0.65268000       0.88665000       0.65996170
    31  N          0.65268000       0.61335000       0.15996170
    32  N          0.34732000       0.11335000       0.34003830
    33  N          0.11402000       0.36215000       0.56663830
    34  N          0.88598000       0.86215000       0.93336170
    35  N          0.88598000       0.63785000       0.43336170
    36  N          0.11402000       0.13785000       0.06663830
    37  N          0.07802000       0.76785000       0.74136850
    38  N          0.92198000       0.26785000       0.75863150
    39  N          0.92198000       0.23215000       0.25863150
    40  N          0.07802000       0.73215000       0.24136850
    41  N          0.23472000       0.00335000       0.87514840
    42  N          0.76528000       0.50335000       0.62485160
    43  N          0.76528000      -0.00335000       0.12485160
    44  N          0.23472000       0.49665000       0.37514840
    45  H          0.21610000       0.86030000       0.87670000
    46  H          0.78390000       0.36030000       0.62330000
    47  H          0.78390000       0.13970000       0.12330000
    48  H          0.21610000       0.63970000       0.37670000
    49  C          0.20852000       0.08225000       0.80100820
    50  C          0.79148000       0.58225000       0.69899180
    51  C          0.79148000       0.91775000       0.19899180
    52  C          0.20852000       0.41775000       0.30100820
    53  C          0.25442000       0.28106000       0.78177810
    54  C          0.74558000       0.78106000       0.71822190
    55  C          0.74558000       0.71894000       0.21822190
    56  C          0.25442000       0.21894000       0.28177810
    57  C          0.22383000       0.37466000       0.70784810
    58  C          0.77617000       0.87466000       0.79215190
    59  C          0.77617000       0.62534000       0.29215190
    60  C          0.22383000       0.12534000       0.20784810
    61  H          0.25450000       0.51270000       0.69900000
    62  H          0.74550000       0.01270000       0.80100000
    63  H          0.74550000       0.48730000       0.30100000
    64  H          0.25450000      -0.01270000       0.19900000
    65  C          0.14682000       0.26416000       0.64577820
    66  C          0.85318000       0.76416000       0.85422180
    67  C          0.85318000       0.73584000       0.35422180
    68  C          0.14682000       0.23584000       0.14577820
    69  C          0.10222000       0.06266000       0.65758810
    70  C          0.89778000       0.56266000       0.84241190
    71  C          0.89778000       0.93734000       0.34241190
    72  C          0.10222000       0.43734000       0.15758810
    73  H          0.05140000      -0.01420000       0.61440000
    74  H          0.94860000       0.48580000       0.88560000
    75  H          0.94860000       0.01420000       0.38560000
    76  H          0.05140000       0.51420000       0.11440000
    77  C          0.13263000       0.97354000       0.73330810
    78  C          0.86737000       0.47354000       0.76669190
    79  C          0.86737000       0.02646000       0.26669190
    80  C          0.13263000       0.52646000       0.23330810
    81  C          0.27603000       0.13666000       0.94531810
    82  C          0.72397000       0.63666000       0.55468190
    83  C          0.72397000       0.86334000       0.05468190
    84  C          0.27603000       0.36334000       0.44531810
    85  C          0.36113000       0.05706000       0.00944190
    86  C          0.63887000       0.55706000       0.49055810
    87  C          0.63887000       0.94294000       0.99055810
    88  C          0.36113000       0.44294000       0.50944190
    89  H          0.39370000       0.91620000       0.00550000
    90  H          0.60630000       0.41620000       0.49450000
    91  H          0.60630000       0.08380000      -0.00550000
    92  H          0.39370000       0.58380000       0.50550000
    93  C          0.39793000       0.18406000       0.07892000
    94  C          0.60207000       0.68406000       0.42108000
    95  C          0.60207000       0.81594000       0.92108000
    96  C          0.39793000       0.31594000       0.57892000
    97  H          0.45520000       0.13000000       0.12300000
    98  H          0.54480000       0.63000000       0.37700000
    99  H          0.54480000       0.87000000       0.87700000
   100  H          0.45520000       0.37000000       0.62300000
   101  C          0.35003000       0.39206000       0.08322180
   102  C          0.64997000       0.89206000       0.41677820
   103  C          0.64997000       0.60794000       0.91677820
   104  C          0.35003000       0.10794000       0.58322180
   105  C          0.26523000       0.47296000       0.01992000
   106  C          0.73477000       0.97296000       0.48008000
   107  C          0.73477000       0.52704000       0.98008000
   108  C          0.26523000       0.02704000       0.51992000
   109  H          0.23270000       0.61400000       0.02380000
   110  H          0.76730000       0.11400000       0.47620000
   111  H          0.76730000       0.38600000       0.97620000
   112  H          0.23270000       0.88600000       0.52380000
   113  C          0.22883000       0.34296000       0.95073810
   114  C          0.77117000       0.84296000       0.54926190
   115  C          0.77117000       0.65704000       0.04926190
   116  C          0.22883000       0.15704000       0.45073810
   117  H          0.17100000       0.39600000       0.90680000
   118  H          0.82900000       0.89600000       0.59320000
   119  H          0.82900000       0.60400000       0.09320000
   120  H          0.17100000       0.10400000       0.40680000
