data_ZZZMRW03
_symmetry_space_group_name_H-M    'P1'
_symmetry_Int_Tables_number       1
loop_
_symmetry_equiv_pos_site_id
_symmetry_equiv_pos_as_xyz
1 x,y,z
_cell_length_a                   20.6846
_cell_length_b                   5.0641
_cell_length_c                   13.5034
_cell_angle_alpha                90.0
_cell_angle_beta                 99.7716
_cell_angle_gamma                90.0
loop_
_atom_site_label
_atom_site_type_symbol
_atom_site_fract_x
_atom_site_fract_y
_atom_site_fract_z
     1  I          0.05043917       0.56579800       0.13383300
     2  I          0.94956083       0.06579800       0.36616700
     3  I          0.94956083       0.43420200       0.86616700
     4  I          0.05043917       0.93420200       0.63383300
     5  O          0.27471170       0.62407000       0.44443000
     6  O          0.72528830       0.12407000       0.05557000
     7  O          0.72528830       0.37593000       0.55557000
     8  O          0.27471170       0.87593000       0.94443000
     9  O          0.33550180       0.44978000       0.34593000
    10  O          0.66449820       0.94978000       0.15407000
    11  O          0.66449820       0.55022000       0.65407000
    12  O          0.33550180       0.05022000       0.84593000
    13  O          0.53332170       0.21198000       0.58993000
    14  O          0.46667830       0.71198000       0.91007000
    15  O          0.46667830       0.78802000       0.41007000
    16  O          0.53332170       0.28802000       0.08993000
    17  O          0.52263170       0.90462000       0.69593000
    18  O          0.47736830       0.40462000       0.80407000
    19  O          0.47736830       0.09538000       0.30407000
    20  O          0.52263170       0.59538000       0.19593000
    21  O          0.31153170       0.55273000       0.70742000
    22  O          0.68846830       0.05273000       0.79258000
    23  O          0.68846830       0.44727000       0.29258000
    24  O          0.31153170       0.94727000       0.20742000
    25  O          0.22541160       0.79182000       0.67073000
    26  O          0.77458840       0.29182000       0.82927000
    27  O          0.77458840       0.20818000       0.32927000
    28  O          0.22541160       0.70818000       0.17073000
    29  N          0.31282000       0.45739000       0.42333000
    30  N          0.68718000       0.95739000       0.07667000
    31  N          0.68718000       0.54261000       0.57667000
    32  N          0.31282000       0.04261000       0.92333000
    33  N          0.49977190       0.06219000       0.63133000
    34  N          0.50022810       0.56219000       0.86867000
    35  N          0.50022810       0.93781000       0.36867000
    36  N          0.49977190       0.43781000       0.13133000
    37  N          0.28394190       0.74732000       0.66993000
    38  N          0.71605810       0.24732000       0.83007000
    39  N          0.71605810       0.25268000       0.33007000
    40  N          0.28394190       0.75268000       0.16993000
    41  N          0.22425190       0.14009000       0.52763000
    42  N          0.77574810       0.64009000       0.97237000
    43  N          0.77574810       0.85991000       0.47237000
    44  N          0.22425190       0.35991000       0.02763000
    45  H          0.20310000       0.09440000       0.57540000
    46  H          0.79690000       0.59440000       0.92460000
    47  H          0.79690000       0.90560000       0.42460000
    48  H          0.20310000       0.40560000       0.07540000
    49  C          0.29062000       0.11391000       0.54783000
    50  C          0.70938000       0.61391000       0.95217000
    51  C          0.70938000       0.88609000       0.45217000
    52  C          0.29062000       0.38609000       0.04783000
    53  C          0.33482000       0.26081000       0.49874000
    54  C          0.66518000       0.76081000       0.00126000
    55  C          0.66518000       0.73919000       0.50126000
    56  C          0.33482000       0.23919000      -0.00126000
    57  C          0.40232000       0.24081000       0.52454000
    58  C          0.59768000       0.74081000       0.97546000
    59  C          0.59768000       0.75919000       0.47546000
    60  C          0.40232000       0.25919000       0.02454000
    61  H          0.43020000       0.34170000       0.49000000
    62  H          0.56980000       0.84170000       0.01000000
    63  H          0.56980000       0.65830000       0.51000000
    64  H          0.43020000       0.15830000      -0.01000000
    65  C          0.42832000       0.07201100       0.60114000
    66  C          0.57168000       0.57201100       0.89886000
    67  C          0.57168000       0.92798900       0.39886000
    68  C          0.42832000       0.42798900       0.10114000
    69  C          0.38902000       0.91909000       0.64973000
    70  C          0.61098000       0.41909000       0.85027000
    71  C          0.61098000       0.08091000       0.35027000
    72  C          0.38902000       0.58091000       0.14973000
    73  H          0.40760000       0.80180000       0.70170000
    74  H          0.59240000       0.30180000       0.79830000
    75  H          0.59240000       0.19820000       0.29830000
    76  H          0.40760000       0.69820000       0.20170000
    77  C          0.32152000       0.93799000       0.62183000
    78  C          0.67848000       0.43799000       0.87817000
    79  C          0.67848000       0.06201000       0.37817000
    80  C          0.32152000       0.56201000       0.12183000
    81  C          0.18532000       0.23361100       0.43684000
    82  C          0.81468000       0.73361100       0.06316000
    83  C          0.81468000       0.76638900       0.56316000
    84  C          0.18532000       0.26638900       0.93684000
    85  C          0.13922000       0.42641000       0.44094000
    86  C          0.86078000       0.92641000       0.05906000
    87  C          0.86078000       0.57359000       0.55906000
    88  C          0.13922000       0.07359000       0.94094000
    89  H          0.13490000       0.49700000       0.50460000
    90  H          0.86510000      -0.00300000      -0.00460000
    91  H          0.86510000       0.50300000       0.49540000
    92  H          0.13490000       0.00300000       0.00460000
    93  C          0.09912000       0.52121200       0.35754000
    94  C          0.90088000       0.02121200       0.14246000
    95  C          0.90088000       0.47878800       0.64246000
    96  C          0.09912000      -0.02121200       0.85754000
    97  H          0.06670000       0.65110000       0.36260000
    98  H          0.93330000       0.15110000       0.13740000
    99  H          0.93330000       0.34890000       0.63740000
   100  H          0.06670000       0.84890000       0.86260000
   101  C          0.10772000       0.42001100       0.26544000
   102  C          0.89228000       0.92001100       0.23456000
   103  C          0.89228000       0.57998900       0.73456000
   104  C          0.10772000       0.07998900       0.76544000
   105  C          0.15332000       0.22301100       0.25944000
   106  C          0.84668000       0.72301100       0.24056000
   107  C          0.84668000       0.77698900       0.74056000
   108  C          0.15332000       0.27698900       0.75944000
   109  H          0.15780000       0.15160000       0.19590000
   110  H          0.84220000       0.65160000       0.30410000
   111  H          0.84220000       0.84840000       0.80410000
   112  H          0.15780000       0.34840000       0.69590000
   113  C          0.19222000       0.13041000       0.34534000
   114  C          0.80778000       0.63041000       0.15466000
   115  C          0.80778000       0.86959000       0.65466000
   116  C          0.19222000       0.36959000       0.84534000
   117  H          0.22360000      -0.00440000       0.34120000
   118  H          0.77640000       0.49560000       0.15880000
   119  H          0.77640000       0.00440000       0.65880000
   120  H          0.22360000       0.50440000       0.84120000
