data_ZZZMRW01
_symmetry_space_group_name_H-M    'P1'
_symmetry_Int_Tables_number       1
loop_
_symmetry_equiv_pos_site_id
_symmetry_equiv_pos_as_xyz
1 x,y,z
_cell_length_a                   5.1331
_cell_length_b                   12.1021
_cell_length_c                   22.4573
_cell_angle_alpha                90.0
_cell_angle_beta                 90.0
_cell_angle_gamma                90.0
loop_
_atom_site_label
_atom_site_type_symbol
_atom_site_fract_x
_atom_site_fract_y
_atom_site_fract_z
     1  I          0.36275900       0.35526300       0.04163117
     2  I          0.13724100       0.64473700       0.54163117
     3  I          0.63724100       0.85526300       0.45836883
     4  I          0.86275900       0.14473700       0.95836883
     5  O          0.38419000       0.41243000       0.29377180
     6  O          0.11581000       0.58757000       0.79377180
     7  O          0.61581000       0.91243000       0.20622820
     8  O          0.88419000       0.08757000       0.70622820
     9  O          0.21149000       0.25143000       0.30962000
    10  O          0.28851000       0.74857000       0.80962000
    11  O          0.78851000       0.75143000       0.19038000
    12  O          0.71149000       0.24857000       0.69038000
    13  O          0.97119000       0.30034000       0.52502000
    14  O          0.52881000       0.69966000       0.02502000
    15  O          0.02881000       0.80034000       0.97498000
    16  O          0.47119000       0.19966000       0.47498000
    17  O          0.64371000       0.40813000       0.54153190
    18  O          0.85629000       0.59187000       0.04153190
    19  O          0.35629000       0.90813000       0.95846810
    20  O          0.14371000       0.09187000       0.45846810
    21  O          0.29769000       0.62844000       0.38731180
    22  O          0.20231000       0.37156000       0.88731180
    23  O          0.70231000       0.12844000       0.11268820
    24  O          0.79769000       0.87156000       0.61268820
    25  O          0.54659000       0.68883000       0.31748190
    26  O          0.95341000       0.31117000       0.81748190
    27  O          0.45341000       0.18883000       0.18251810
    28  O          0.04659000       0.81117000       0.68251810
    29  N          0.21599000       0.35275000       0.31492000
    30  N          0.28401000       0.64725000       0.81492000
    31  N          0.78401000       0.85275000       0.18508000
    32  N          0.71599000       0.14725000       0.68508000
    33  N          0.81301100       0.36954000       0.50892000
    34  N          0.68698900       0.63046000       0.00892000
    35  N          0.18698900       0.86954000       0.99108000
    36  N          0.31301100       0.13046000       0.49108000
    37  N          0.50491100       0.62474000       0.35972000
    38  N         -0.00491100       0.37526000       0.85972000
    39  N          0.49508900       0.12474000       0.14028000
    40  N          0.00491100       0.87526000       0.64028000
    41  N          0.90831000       0.54984000       0.27852000
    42  N          0.59169000       0.45016000       0.77852000
    43  N          0.09169000       0.04984000       0.22148000
    44  N          0.40831000       0.95016000       0.72148000
    45  H          0.85810000       0.61830000       0.27650000
    46  H          0.64190000       0.38170000       0.77650000
    47  H          0.14190000       0.11830000       0.22350000
    48  H          0.35810000       0.88170000       0.72350000
    49  C          0.87671300       0.50054000       0.33142000
    50  C          0.62328700       0.49946000       0.83142000
    51  C          0.12328700       0.00054000       0.16858000
    52  C          0.37671300      -0.00054000       0.66858000
    53  C          0.01491200       0.40385000       0.35203000
    54  C          0.48508800       0.59615000       0.85203000
    55  C         -0.01491200       0.90385000       0.14797000
    56  C          0.51491200       0.09615000       0.64797000
    57  C         -0.00958900       0.36025000       0.40682000
    58  C          0.50958900       0.63975000       0.90682000
    59  C          0.00958900       0.86025000       0.09318000
    60  C          0.49041100       0.13975000       0.59318000
    61  H          0.08710000       0.29630000       0.41740000
    62  H          0.41290000       0.70370000       0.91740000
    63  H          0.91290000       0.79630000       0.08260000
    64  H          0.58710000       0.20370000       0.58260000
    65  C          0.82341400       0.40885000       0.44813000
    66  C          0.67658600       0.59115000       0.94813000
    67  C          0.17658600       0.90885000       0.05187000
    68  C          0.32341400       0.09115000       0.55187000
    69  C          0.66861400       0.49755000       0.43173000
    70  C          0.83138600       0.50245000       0.93173000
    71  C          0.33138600      -0.00245000       0.06827000
    72  C          0.16861400       0.00245000       0.56827000
    73  H          0.54890000       0.52890000       0.45920000
    74  H          0.95110000       0.47110000       0.95920000
    75  H          0.45110000       0.02890000       0.04080000
    76  H          0.04890000       0.97110000       0.54080000
    77  C          0.69131200       0.53985000       0.37453000
    78  C          0.80868800       0.46015000       0.87453000
    79  C          0.30868800       0.03985000       0.12547000
    80  C          0.19131200       0.96015000       0.62547000
    81  C          0.01321200       0.50465000       0.22503000
    82  C          0.48678800       0.49535000       0.72503000
    83  C         -0.01321200       0.00465000       0.27497000
    84  C          0.51321200      -0.00465000       0.77497000
    85  C          0.20851200       0.55995000       0.19623000
    86  C          0.29148800       0.44005000       0.69623000
    87  C          0.79148800       0.05995000       0.30377000
    88  C          0.70851200       0.94005000       0.80377000
    89  H          0.27460000       0.62660000       0.21260000
    90  H          0.22540000       0.37340000       0.71260000
    91  H          0.72540000       0.12660000       0.28740000
    92  H          0.77460000       0.87340000       0.78740000
    93  C          0.31221300       0.51935000       0.14293000
    94  C          0.18778700       0.48065000       0.64293000
    95  C          0.68778700       0.01935000       0.35707000
    96  C          0.81221300       0.98065000       0.85707000
    97  H          0.44770000       0.55720000       0.12250000
    98  H          0.05230000       0.44280000       0.62250000
    99  H          0.55230000       0.05720000       0.37750000
   100  H          0.94770000       0.94280000       0.87750000
   101  C          0.20851100       0.42145000       0.12103000
   102  C          0.29148900       0.57855000       0.62103000
   103  C          0.79148900       0.92145000       0.37897000
   104  C          0.70851100       0.07855000       0.87897000
   105  C          0.00851200       0.36675000       0.14903000
   106  C          0.49148800       0.63325000       0.64903000
   107  C         -0.00851200       0.86675000       0.35097000
   108  C          0.50851200       0.13325000       0.85097000
   109  H          0.93920000       0.30060000       0.13260000
   110  H          0.56080000       0.69940000       0.63260000
   111  H          0.06080000       0.80060000       0.36740000
   112  H          0.43920000       0.19940000       0.86740000
   113  C          0.90901300       0.40955000       0.20183000
   114  C          0.59098700       0.59045000       0.70183000
   115  C          0.09098700       0.90955000       0.29817000
   116  C          0.40901300       0.09045000       0.79817000
   117  H          0.76980000       0.37320000       0.22160000
   118  H          0.73020000       0.62680000       0.72160000
   119  H          0.23020000       0.87320000       0.27840000
   120  H          0.26980000       0.12680000       0.77840000
