data_ZZZNQS06
_symmetry_space_group_name_H-M    'P1'
_symmetry_Int_Tables_number       1
loop_
_symmetry_equiv_pos_site_id
_symmetry_equiv_pos_as_xyz
1 x,y,z
_cell_length_a                   16.9645
_cell_length_b                   5.46838
_cell_length_c                   23.0775
_cell_angle_alpha                90.0
_cell_angle_beta                 110.8241
_cell_angle_gamma                90.0
loop_
_atom_site_label
_atom_site_type_symbol
_atom_site_fract_x
_atom_site_fract_y
_atom_site_fract_z
     1  O          0.23563500       0.49392000       0.45348400
     2  O          0.73563500      -0.00608000       0.45348400
     3  O          0.76436500       0.49392000       0.04651600
     4  O          0.26436500      -0.00608000       0.04651600
     5  O          0.76436500       0.50608000       0.54651600
     6  O          0.26436500       0.00608000       0.54651600
     7  O          0.23563500       0.50608000       0.95348400
     8  O          0.73563500       0.00608000       0.95348400
     9  O          0.35370500       0.67392000       0.51579400
    10  O          0.85370500       0.17392000       0.51579400
    11  O          0.64629500       0.67392000       0.98420600
    12  O          0.14629500       0.17392000       0.98420600
    13  O          0.64629500       0.32608000       0.48420600
    14  O          0.14629500       0.82608000       0.48420600
    15  O          0.35370500       0.32608000       0.01579400
    16  O          0.85370500       0.82608000       0.01579400
    17  O          0.25272500       0.80988000       0.33361400
    18  O          0.75272500       0.30988000       0.33361400
    19  O          0.74727500       0.80988000       0.16638600
    20  O          0.24727500       0.30988000       0.16638600
    21  O          0.74727500       0.19012000       0.66638600
    22  O          0.24727500       0.69012000       0.66638600
    23  O          0.25272500       0.19012000       0.83361400
    24  O          0.75272500       0.69012000       0.83361400
    25  C          0.33862700       0.80558000       0.35077500
    26  C          0.83862700       0.30558000       0.35077500
    27  C          0.66137300       0.80558000       0.14922500
    28  C          0.16137300       0.30558000       0.14922500
    29  C          0.66137300       0.19442000       0.64922500
    30  C          0.16137300       0.69442000       0.64922500
    31  C          0.33862700       0.19442000       0.85077500
    32  C          0.83862700       0.69442000       0.85077500
    33  C          0.38181800       0.63798000       0.32753600
    34  C          0.88181800       0.13798000       0.32753600
    35  C          0.61818200       0.63798000       0.17246400
    36  C          0.11818200       0.13798000       0.17246400
    37  C          0.61818200       0.36202000       0.67246400
    38  C          0.11818200       0.86202000       0.67246400
    39  C          0.38181800       0.36202000       0.82753600
    40  C          0.88181800       0.86202000       0.82753600
    41  C          0.46903800       0.64458000       0.34792600
    42  C          0.96903800       0.14458000       0.34792600
    43  C          0.53096200       0.64458000       0.15207400
    44  C          0.03096200       0.14458000       0.15207400
    45  C          0.53096200       0.35542000       0.65207400
    46  C          0.03096200       0.85542000       0.65207400
    47  C          0.46903800       0.35542000       0.84792600
    48  C          0.96903800       0.85542000       0.84792600
    49  C          0.51398700       0.81858000       0.39032500
    50  C          0.01398700       0.31858000       0.39032500
    51  C          0.48601300       0.81858000       0.10967500
    52  C          0.98601300       0.31858000       0.10967500
    53  C          0.48601300       0.18142000       0.60967500
    54  C          0.98601300       0.68142000       0.60967500
    55  C          0.51398700       0.18142000       0.89032500
    56  C          0.01398700       0.68142000       0.89032500
    57  C          0.47087700      -0.01282000       0.41280500
    58  C          0.97087700       0.48718000       0.41280500
    59  C          0.52912300      -0.01282000       0.08719500
    60  C          0.02912300       0.48718000       0.08719500
    61  C          0.52912300       0.01282000       0.58719500
    62  C          0.02912300       0.51282000       0.58719500
    63  C          0.47087700       0.01282000       0.91280500
    64  C          0.97087700       0.51282000       0.91280500
    65  C          0.38288700      -0.01602000       0.39394500
    66  C          0.88288700       0.48398000       0.39394500
    67  C          0.61711300      -0.01602000       0.10605500
    68  C          0.11711300       0.48398000       0.10605500
    69  C          0.61711300       0.01602000       0.60605500
    70  C          0.11711300       0.51602000       0.60605500
    71  C          0.38288700       0.01602000       0.89394500
    72  C          0.88288700       0.51602000       0.89394500
    73  C          0.33588700       0.15632000       0.41813500
    74  C          0.83588700       0.65632000       0.41813500
    75  C          0.66411300       0.15632000       0.08186500
    76  C          0.16411300       0.65632000       0.08186500
    77  C          0.66411300       0.84368000       0.58186500
    78  C          0.16411300       0.34368000       0.58186500
    79  C          0.33588700       0.84368000       0.91813500
    80  C          0.83588700       0.34368000       0.91813500
    81  C          0.36814700       0.34312000       0.45592500
    82  C          0.86814700       0.84312000       0.45592500
    83  C          0.63185300       0.34312000       0.04407500
    84  C          0.13185300       0.84312000       0.04407500
    85  C          0.63185300       0.65688000       0.54407500
    86  C          0.13185300       0.15688000       0.54407500
    87  C          0.36814700       0.65688000       0.95592500
    88  C          0.86814700       0.15688000       0.95592500
    89  C          0.31532700       0.51152000       0.47600500
    90  C          0.81532700       0.01152000       0.47600500
    91  C          0.68467300       0.51152000       0.02399500
    92  C          0.18467300       0.01152000       0.02399500
    93  C          0.68467300       0.48848000       0.52399500
    94  C          0.18467300      -0.01152000       0.52399500
    95  C          0.31532700       0.48848000       0.97600500
    96  C          0.81532700      -0.01152000       0.97600500
    97  C          0.20510800       0.61617000       0.29511600
    98  C          0.70510800       0.11617000       0.29511600
    99  C          0.79489200       0.61617000       0.20488400
   100  C          0.29489200       0.11617000       0.20488400
   101  C          0.79489200       0.38383000       0.70488400
   102  C          0.29489200       0.88383000       0.70488400
   103  C          0.20510800       0.38383000       0.79511600
   104  C          0.70510800       0.88383000       0.79511600
   105  C          0.11441800       0.65107000       0.28907700
   106  C          0.61441800       0.15107000       0.28907700
   107  C          0.88558200       0.65107000       0.21092300
   108  C          0.38558200       0.15107000       0.21092300
   109  C          0.88558200       0.34893000       0.71092300
   110  C          0.38558200       0.84893000       0.71092300
   111  C          0.11441800       0.34893000       0.78907700
   112  C          0.61441800       0.84893000       0.78907700
   113  H          0.30691800       0.83305300       0.52901200
   114  H          0.80691800       0.33305300       0.52901200
   115  H          0.69308200       0.83305300       0.97098800
   116  H          0.19308200       0.33305300       0.97098800
   117  H          0.69308200       0.16694700       0.47098800
   118  H          0.19308200       0.66694700       0.47098800
   119  H          0.30691800       0.16694700       0.02901200
   120  H          0.80691800       0.66694700       0.02901200
   121  H          0.35128000       0.51537400       0.29866000
   122  H          0.85128000       0.01537400       0.29866000
   123  H          0.64872000       0.51537400       0.20134000
   124  H          0.14872000       0.01537400       0.20134000
   125  H          0.64872000       0.48462600       0.70134000
   126  H          0.14872000      -0.01537400       0.70134000
   127  H          0.35128000       0.48462600       0.79866000
   128  H          0.85128000      -0.01537400       0.79866000
   129  H          0.49858000       0.52337500       0.33176000
   130  H         -0.00142000       0.02337500       0.33176000
   131  H          0.50142000       0.52337500       0.16824000
   132  H          0.00142000       0.02337500       0.16824000
   133  H          0.50142000       0.47662500       0.66824000
   134  H          0.00142000      -0.02337500       0.66824000
   135  H          0.49858000       0.47662500       0.83176000
   136  H         -0.00142000      -0.02337500       0.83176000
   137  H          0.57509000       0.81617600       0.40486000
   138  H          0.07509000       0.31617600       0.40486000
   139  H          0.42491000       0.81617600       0.09514000
   140  H          0.92491000       0.31617600       0.09514000
   141  H          0.42491000       0.18382400       0.59514000
   142  H          0.92491000       0.68382400       0.59514000
   143  H          0.57509000       0.18382400       0.90486000
   144  H          0.07509000       0.68382400       0.90486000
   145  H          0.50318000       0.11122700       0.44306000
   146  H          0.00318000       0.61122700       0.44306000
   147  H          0.49682000       0.11122700       0.05694000
   148  H         -0.00318000       0.61122700       0.05694000
   149  H          0.49682000       0.88877300       0.55694000
   150  H         -0.00318000       0.38877300       0.55694000
   151  H          0.50318000       0.88877300       0.94306000
   152  H          0.00318000       0.38877300       0.94306000
   153  H          0.27458000       0.13272200       0.40456000
   154  H          0.77458000       0.63272200       0.40456000
   155  H          0.72542000       0.13272200       0.09544000
   156  H          0.22542000       0.63272200       0.09544000
   157  H          0.72542000       0.86727800       0.59544000
   158  H          0.22542000       0.36727800       0.59544000
   159  H          0.27458000       0.86727800       0.90456000
   160  H          0.77458000       0.36727800       0.90456000
   161  H          0.42858000       0.37142400       0.47346000
   162  H          0.92858000       0.87142400       0.47346000
   163  H          0.57142000       0.37142400       0.02654000
   164  H          0.07142000       0.87142400       0.02654000
   165  H          0.57142000       0.62857600       0.52654000
   166  H          0.07142000       0.12857600       0.52654000
   167  H          0.42858000       0.62857600       0.97346000
   168  H          0.92858000       0.12857600       0.97346000
   169  H          0.21107000       0.62637800       0.25376000
   170  H          0.71107000       0.12637800       0.25376000
   171  H          0.78893000       0.62637800       0.24624000
   172  H          0.28893000       0.12637800       0.24624000
   173  H          0.78893000       0.37362200       0.74624000
   174  H          0.28893000       0.87362200       0.74624000
   175  H          0.21107000       0.37362200       0.75376000
   176  H          0.71107000       0.87362200       0.75376000
   177  H          0.22588000       0.46077300       0.31306000
   178  H          0.72588000       0.96077300       0.31306000
   179  H          0.77412000       0.46077300       0.18694000
   180  H          0.27412000       0.96077300       0.18694000
   181  H          0.77412000       0.53922700       0.68694000
   182  H          0.27412000       0.03922700       0.68694000
   183  H          0.22588000       0.53922700       0.81306000
   184  H          0.72588000       0.03922700       0.81306000
   185  H          0.09301000       0.82087100       0.27097000
   186  H          0.59301000       0.32087100       0.27097000
   187  H          0.90699000       0.82087100       0.22903000
   188  H          0.40699000       0.32087100       0.22903000
   189  H          0.90699000       0.17912900       0.72903000
   190  H          0.40699000       0.67912900       0.72903000
   191  H          0.09301000       0.17912900       0.77097000
   192  H          0.59301000       0.67912900       0.77097000
   193  H          0.10869000       0.64527300       0.32937000
   194  H          0.60869000       0.14527300       0.32937000
   195  H          0.89131000       0.64527300       0.17063000
   196  H          0.39131000       0.14527300       0.17063000
   197  H          0.89131000       0.35472700       0.67063000
   198  H          0.39131000       0.85472700       0.67063000
   199  H          0.10869000       0.35472700       0.82937000
   200  H          0.60869000       0.85472700       0.82937000
   201  H          0.07811000       0.52536900       0.26007000
   202  H          0.57811000       0.02536900       0.26007000
   203  H          0.92189000       0.52536900       0.23993000
   204  H          0.42189000       0.02536900       0.23993000
   205  H          0.92189000       0.47463100       0.73993000
   206  H          0.42189000      -0.02536900       0.73993000
   207  H          0.07811000       0.47463100       0.76007000
   208  H          0.57811000      -0.02536900       0.76007000
