data_ZZZNQS04
_symmetry_space_group_name_H-M    'P1'
_symmetry_Int_Tables_number       1
loop_
_symmetry_equiv_pos_site_id
_symmetry_equiv_pos_as_xyz
1 x,y,z
_cell_length_a                   16.9973
_cell_length_b                   5.46118
_cell_length_c                   23.2174
_cell_angle_alpha                90.0
_cell_angle_beta                 110.8503
_cell_angle_gamma                90.0
loop_
_atom_site_label
_atom_site_type_symbol
_atom_site_fract_x
_atom_site_fract_y
_atom_site_fract_z
     1  O          0.24732600       0.81384190       0.16654500
     2  O          0.74732600       0.31384190       0.16654500
     3  O          0.75267400       0.81384190       0.33345500
     4  O          0.25267400       0.31384190       0.33345500
     5  O          0.75267400       0.18615810       0.83345500
     6  O          0.25267400       0.68615810       0.83345500
     7  O          0.24732600       0.18615810       0.66654500
     8  O          0.74732600       0.68615810       0.66654500
     9  O          0.26412600       0.49542000       0.04649500
    10  O          0.76412600      -0.00458000       0.04649500
    11  O          0.73587400       0.49542000       0.45350500
    12  O          0.23587400      -0.00458000       0.45350500
    13  O          0.73587400       0.50458000       0.95350500
    14  O          0.23587400       0.00458000       0.95350500
    15  O          0.26412600       0.50458000       0.54649500
    16  O          0.76412600       0.00458000       0.54649500
    17  C          0.11744800      -0.01388000       0.10614600
    18  C          0.61744800       0.48612000       0.10614600
    19  C          0.88255200      -0.01388000       0.39385400
    20  C          0.38255200       0.48612000       0.39385400
    21  C          0.88255200       0.01388000       0.89385400
    22  C          0.38255200       0.51388000       0.89385400
    23  C          0.11744800       0.01388000       0.60614600
    24  C          0.61744800       0.51388000       0.60614600
    25  C          0.13220900       0.34303000       0.04397600
    26  C          0.63220900       0.84303000       0.04397600
    27  C          0.86779100       0.34303000       0.45602400
    28  C          0.36779100       0.84303000       0.45602400
    29  C          0.86779100       0.65697000       0.95602400
    30  C          0.36779100       0.15697000       0.95602400
    31  C          0.13220900       0.65697000       0.54397600
    32  C          0.63220900       0.15697000       0.54397600
    33  H          0.07300000       0.36730000       0.02890000
    34  H          0.57300000       0.86730000       0.02890000
    35  H          0.92700000       0.36730000       0.47110000
    36  H          0.42700000       0.86730000       0.47110000
    37  H          0.92700000       0.63270000       0.97110000
    38  H          0.42700000       0.13270000       0.97110000
    39  H          0.07300000       0.63270000       0.52890000
    40  H          0.57300000       0.13270000       0.52890000
    41  O          0.14622700       0.67282000       0.98425500
    42  O          0.64622700       0.17282000       0.98425500
    43  O          0.85377300       0.67282000       0.51574500
    44  O          0.35377300       0.17282000       0.51574500
    45  O          0.85377300       0.32718000       0.01574500
    46  O          0.35377300       0.82718000       0.01574500
    47  O          0.14622700       0.32718000       0.48425500
    48  O          0.64622700       0.82718000       0.48425500
    49  H          0.18140000       0.75980000       0.97590000
    50  H          0.68140000       0.25980000       0.97590000
    51  H          0.81860000       0.75980000       0.52410000
    52  H          0.31860000       0.25980000       0.52410000
    53  H          0.81860000       0.24020000       0.02410000
    54  H          0.31860000       0.74020000       0.02410000
    55  H          0.18140000       0.24020000       0.47590000
    56  H          0.68140000       0.74020000       0.47590000
    57  C          0.16149800       0.80853000       0.14928600
    58  C          0.66149800       0.30853000       0.14928600
    59  C          0.83850200       0.80853000       0.35071400
    60  C          0.33850200       0.30853000       0.35071400
    61  C          0.83850200       0.19147000       0.85071400
    62  C          0.33850200       0.69147000       0.85071400
    63  C          0.16149800       0.19147000       0.64928600
    64  C          0.66149800       0.69147000       0.64928600
    65  C          0.16412800       0.15853000       0.08202600
    66  C          0.66412800       0.65853000       0.08202600
    67  C          0.83587200       0.15853000       0.41797400
    68  C          0.33587200       0.65853000       0.41797400
    69  C          0.83587200       0.84147000       0.91797400
    70  C          0.33587200       0.34147000       0.91797400
    71  C          0.16412800       0.84147000       0.58202600
    72  C          0.66412800       0.34147000       0.58202600
    73  H          0.22330000       0.13540000       0.09500000
    74  H          0.72330000       0.63540000       0.09500000
    75  H          0.77670000       0.13540000       0.40500000
    76  H          0.27670000       0.63540000       0.40500000
    77  H          0.77670000       0.86460000       0.90500000
    78  H          0.27670000       0.36460000       0.90500000
    79  H          0.22330000       0.86460000       0.59500000
    80  H          0.72330000       0.36460000       0.59500000
    81  C          0.03142900       0.64783000       0.15214700
    82  C          0.53142900       0.14783000       0.15214700
    83  C          0.96857100       0.64783000       0.34785300
    84  C          0.46857100       0.14783000       0.34785300
    85  C          0.96857100       0.35217000       0.84785300
    86  C          0.46857100       0.85217000       0.84785300
    87  C          0.03142900       0.35217000       0.65214700
    88  C          0.53142900       0.85217000       0.65214700
    89  H          0.00210000       0.53200000       0.16750000
    90  H          0.50210000       0.03200000       0.16750000
    91  H         -0.00210000       0.53200000       0.33250000
    92  H          0.49790000       0.03200000       0.33250000
    93  H         -0.00210000       0.46800000       0.83250000
    94  H          0.49790000       0.96800000       0.83250000
    95  H          0.00210000       0.46800000       0.66750000
    96  H          0.50210000       0.96800000       0.66750000
    97  C          0.02961900      -0.01147000       0.08738600
    98  C          0.52961900       0.48853000       0.08738600
    99  C          0.97038100      -0.01147000       0.41261400
   100  C          0.47038100       0.48853000       0.41261400
   101  C          0.97038100       0.01147000       0.91261400
   102  C          0.47038100       0.51147000       0.91261400
   103  C          0.02961900       0.01147000       0.58738600
   104  C          0.52961900       0.51147000       0.58738600
   105  H         -0.00140000       0.10820000       0.05850000
   106  H          0.49860000       0.60820000       0.05850000
   107  H          0.00140000       0.10820000       0.44150000
   108  H          0.50140000       0.60820000       0.44150000
   109  H          0.00140000       0.89180000       0.94150000
   110  H          0.50140000       0.39180000       0.94150000
   111  H         -0.00140000       0.89180000       0.55850000
   112  H          0.49860000       0.39180000       0.55850000
   113  C          0.18481800       0.51163000       0.02407600
   114  C          0.68481800       0.01163000       0.02407600
   115  C          0.81518200       0.51163000       0.47592400
   116  C          0.31518200       0.01163000       0.47592400
   117  C          0.81518200       0.48837000       0.97592400
   118  C          0.31518200      -0.01163000       0.97592400
   119  C          0.18481800       0.48837000       0.52407600
   120  C          0.68481800      -0.01163000       0.52407600
   121  C          0.98685100       0.82083000       0.10982700
   122  C          0.48685100       0.32083000       0.10982700
   123  C          0.01314900       0.82083000       0.39017300
   124  C          0.51314900       0.32083000       0.39017300
   125  C          0.01314900       0.17917000       0.89017300
   126  C          0.51314900       0.67917000       0.89017300
   127  C          0.98685100       0.17917000       0.60982700
   128  C          0.48685100       0.67917000       0.60982700
   129  H          0.92710000       0.82460000       0.09620000
   130  H          0.42710000       0.32460000       0.09620000
   131  H          0.07290000       0.82460000       0.40380000
   132  H          0.57290000       0.32460000       0.40380000
   133  H          0.07290000       0.17540000       0.90380000
   134  H          0.57290000       0.67540000       0.90380000
   135  H          0.92710000       0.17540000       0.59620000
   136  H          0.42710000       0.67540000       0.59620000
   137  C          0.11866900       0.64153000       0.17246700
   138  C          0.61866900       0.14153000       0.17246700
   139  C          0.88133100       0.64153000       0.32753300
   140  C          0.38133100       0.14153000       0.32753300
   141  C          0.88133100       0.35847000       0.82753300
   142  C          0.38133100       0.85847000       0.82753300
   143  C          0.11866900       0.35847000       0.67246700
   144  C          0.61866900       0.85847000       0.67246700
   145  H          0.14900000       0.52340000       0.20210000
   146  H          0.64900000       0.02340000       0.20210000
   147  H          0.85100000       0.52340000       0.29790000
   148  H          0.35100000       0.02340000       0.29790000
   149  H          0.85100000       0.47660000       0.79790000
   150  H          0.35100000      -0.02340000       0.79790000
   151  H          0.14900000       0.47660000       0.70210000
   152  H          0.64900000      -0.02340000       0.70210000
   153  C          0.29490900       0.61953000       0.20453700
   154  C          0.79490900       0.11953000       0.20453700
   155  C          0.70509100       0.61953000       0.29546300
   156  C          0.20509100       0.11953000       0.29546300
   157  C          0.70509100       0.38047000       0.79546300
   158  C          0.20509100       0.88047000       0.79546300
   159  C          0.29490900       0.38047000       0.70453700
   160  C          0.79490900       0.88047000       0.70453700
   161  H          0.27400000       0.45890000       0.18550000
   162  H          0.77400000       0.95890000       0.18550000
   163  H          0.72600000       0.45890000       0.31450000
   164  H          0.22600000       0.95890000       0.31450000
   165  H          0.72600000       0.54110000       0.81450000
   166  H          0.22600000       0.04110000       0.81450000
   167  H          0.27400000       0.54110000       0.68550000
   168  H          0.77400000       0.04110000       0.68550000
   169  H          0.28980000       0.62520000       0.24570000
   170  H          0.78980000       0.12520000       0.24570000
   171  H          0.71020000       0.62520000       0.25430000
   172  H          0.21020000       0.12520000       0.25430000
   173  H          0.71020000       0.37480000       0.75430000
   174  H          0.21020000       0.87480000       0.75430000
   175  H          0.28980000       0.37480000       0.74570000
   176  H          0.78980000       0.87480000       0.74570000
   177  C          0.38516900       0.65483000       0.21035800
   178  C          0.88516900       0.15483000       0.21035800
   179  C          0.61483100       0.65483000       0.28964200
   180  C          0.11483100       0.15483000       0.28964200
   181  C          0.61483100       0.34517000       0.78964200
   182  C          0.11483100       0.84517000       0.78964200
   183  C          0.38516900       0.34517000       0.71035800
   184  C          0.88516900       0.84517000       0.71035800
   185  H          0.38990000       0.63890000       0.16970000
   186  H          0.88990000       0.13890000       0.16970000
   187  H          0.61010000       0.63890000       0.33030000
   188  H          0.11010000       0.13890000       0.33030000
   189  H          0.61010000       0.36110000       0.83030000
   190  H          0.11010000       0.86110000       0.83030000
   191  H          0.38990000       0.36110000       0.66970000
   192  H          0.88990000       0.86110000       0.66970000
   193  H          0.42030000       0.53050000       0.23820000
   194  H          0.92030000       0.03050000       0.23820000
   195  H          0.57970000       0.53050000       0.26180000
   196  H          0.07970000       0.03050000       0.26180000
   197  H          0.57970000       0.46950000       0.76180000
   198  H          0.07970000       0.96950000       0.76180000
   199  H          0.42030000       0.46950000       0.73820000
   200  H          0.92030000       0.96950000       0.73820000
   201  H          0.40410000       0.81820000       0.22700000
   202  H          0.90410000       0.31820000       0.22700000
   203  H          0.59590000       0.81820000       0.27300000
   204  H          0.09590000       0.31820000       0.27300000
   205  H          0.59590000       0.18180000       0.77300000
   206  H          0.09590000       0.68180000       0.77300000
   207  H          0.40410000       0.18180000       0.72700000
   208  H          0.90410000       0.68180000       0.72700000
