data_ZZZNQS09
_symmetry_space_group_name_H-M    'P1'
_symmetry_Int_Tables_number       1
loop_
_symmetry_equiv_pos_site_id
_symmetry_equiv_pos_as_xyz
1 x,y,z
_cell_length_a                   8.73735
_cell_length_b                   11.01678
_cell_length_c                   17.29501
_cell_angle_alpha                91.1874
_cell_angle_beta                 92.7755
_cell_angle_gamma                108.9384
loop_
_atom_site_label
_atom_site_type_symbol
_atom_site_fract_x
_atom_site_fract_y
_atom_site_fract_z
     1  C          0.01734000       0.03453000       0.22231190
     2  C         -0.01734000       0.96547000       0.77768810
     3  C          0.01234000       0.02933000       0.30236190
     4  C         -0.01234000       0.97067000       0.69763810
     5  C          0.14855000       0.03893000       0.34807190
     6  C          0.85145000       0.96107000       0.65192810
     7  H          0.14340000       0.03520000       0.40160000
     8  H          0.85660000       0.96480000       0.59840000
     9  C          0.29235000       0.05413000       0.31473000
    10  C          0.70765000       0.94587000       0.68527000
    11  H          0.38450000       0.06060000       0.34590000
    12  H          0.61550000       0.93940000       0.65410000
    13  C          0.30235000       0.05983000       0.23623000
    14  C          0.69765000       0.94017000       0.76377000
    15  H          0.40040000       0.07050000       0.21400000
    16  H          0.59960000       0.92950000       0.78600000
    17  C          0.16585000       0.04973000       0.19082000
    18  C          0.83415000       0.95027000       0.80918000
    19  H          0.17240000       0.05300000       0.13730000
    20  H          0.82760000       0.94700000       0.86270000
    21  C          0.86934000       0.02513000       0.17491180
    22  C          0.13066000       0.97487000       0.82508820
    23  H          0.77780000       0.01990000       0.20170000
    24  H          0.22220000       0.98010000       0.79830000
    25  C          0.85235000       0.02333000       0.10062000
    26  C          0.14765000       0.97667000       0.89938000
    27  H          0.94250000       0.03040000       0.07230000
    28  H          0.05750000       0.96960000       0.92770000
    29  C          0.69615000       0.01043000       0.05752000
    30  C          0.30385000      -0.01043000       0.94248000
    31  C          0.84824000       0.01133000       0.41231170
    32  C          0.15176000      -0.01133000       0.58768830
    33  H          0.92250000       0.08900000       0.43750000
    34  H          0.07750000       0.91100000       0.56250000
    35  H          0.87360000       0.93830000       0.43280000
    36  H          0.12640000       0.06170000       0.56720000
    37  C          0.67994000       0.00074000       0.42699180
    38  C          0.32006000      -0.00074000       0.57300820
    39  H          0.65520000       0.07240000       0.40560000
    40  H          0.34480000       0.92760000       0.59440000
    41  H          0.66710000       0.00040000       0.48180000
    42  H          0.33290000      -0.00040000       0.51820000
    43  H          0.60750000       0.92230000       0.40310000
    44  H          0.39250000       0.07770000       0.59690000
    45  O          0.69563000       0.00992000       0.98553880
    46  O          0.30437000      -0.00992000       0.01446120
    47  O          0.57193000       0.00062000       0.09493110
    48  O          0.42807000      -0.00062000       0.90506890
    49  H          0.44010000       0.00070000       0.06140000
    50  H          0.55990000      -0.00070000       0.93860000
    51  O          0.86402000       0.01452000       0.33072110
    52  O          0.13598000       0.98548000       0.66927890
    53  C          0.80873000       0.35343000       0.13578170
    54  C          0.19127000       0.64657000       0.86421830
    55  C          0.80613000       0.33902000       0.05543170
    56  C          0.19387000       0.66098000       0.94456830
    57  C          0.67164000       0.33333000       0.00966180
    58  C          0.32836000       0.66667000       0.99033820
    59  H          0.67230000       0.32440000       0.95610000
    60  H          0.32770000       0.67560000       0.04390000
    61  C          0.53534000       0.34093000       0.04332000
    62  C          0.46466000       0.65907000       0.95668000
    63  H          0.44370000       0.33650000       0.01220000
    64  H          0.55630000       0.66350000       0.98780000
    65  C          0.53284000       0.35483000       0.12193000
    66  C          0.46716000       0.64517000       0.87807000
    67  H          0.44040000       0.36000000       0.14420000
    68  H          0.55960000       0.64000000       0.85580000
    69  C          0.66774000       0.36113000       0.16708190
    70  C          0.33226000       0.63887000       0.83291810
    71  H          0.66570000       0.37080000       0.22050000
    72  H          0.33430000       0.62920000       0.77950000
    73  C          0.95233000       0.35912000       0.18385160
    74  C          0.04767000       0.64088000       0.81614840
    75  H          0.04430000       0.36420000       0.15740000
    76  H          0.95570000       0.63580000       0.84260000
    77  C          0.96904000       0.35803000       0.25923170
    78  C          0.03096000       0.64197000       0.74076830
    79  H          0.87890000       0.35250000       0.28720000
    80  H          0.12110000       0.64750000       0.71280000
    81  C          0.11964000       0.36463000       0.30273170
    82  C          0.88036000       0.63537000       0.69726830
    83  C          0.95243000       0.31493000       0.94479860
    84  C          0.04757000       0.68507000       0.05520140
    85  H          0.93730000       0.38750000       0.91850000
    86  H          0.06270000       0.61250000       0.08150000
    87  H          0.86750000       0.23750000       0.92570000
    88  H          0.13250000       0.76250000       0.07430000
    89  C          0.11543000       0.30493000       0.93009840
    90  C          0.88457000       0.69507000       0.06990160
    91  H          0.19840000       0.38260000       0.94830000
    92  H          0.80160000       0.61740000       0.05170000
    93  H          0.12290000       0.29200000       0.87550000
    94  H          0.87710000       0.70800000       0.12450000
    95  H          0.12960000       0.23350000       0.95700000
    96  H          0.87040000       0.76650000       0.04300000
    97  O          0.11242000       0.34918190       0.37500110
    98  O          0.88758000       0.65081810       0.62499890
    99  O          0.24693000       0.38339190       0.26725100
   100  O          0.75307000       0.61660810       0.73274900
   101  H          0.37810000       0.37680000       0.30490000
   102  H          0.62190000       0.62320000       0.69510000
   103  O          0.94632000       0.33174180       0.02649100
   104  O          0.05368000       0.66825820       0.97350900
   105  C          0.20343000       0.67622000       0.41845170
   106  C          0.79657000       0.32378000       0.58154830
   107  C          0.21544000       0.69673000       0.33951170
   108  C          0.78456000       0.30327000       0.66048830
   109  C          0.08604000       0.70363000       0.29377180
   110  C          0.91396000       0.29637000       0.70622820
   111  H          0.09640000       0.71780000       0.24120000
   112  H          0.90360000       0.28220000       0.75880000
   113  C          0.94076000       0.68963000       0.32613000
   114  C          0.05924000       0.31037000       0.67387000
   115  H          0.85290000       0.69430000       0.29520000
   116  H          0.14710000       0.30570000       0.70480000
   117  C          0.92466000       0.66863000       0.40343000
   118  C          0.07534000       0.33137000       0.59657000
   119  H          0.82610000       0.65870000       0.42500000
   120  H          0.17390000       0.34130000       0.57500000
   121  C          0.05394000       0.66243000       0.44855180
   122  C          0.94606000       0.33757000       0.55144820
   123  H          0.04190000       0.64860000       0.50110000
   124  H          0.95810000       0.35140000       0.49890000
   125  C          0.34104000       0.66653000       0.46511160
   126  C          0.65896000       0.33347000       0.53488840
   127  H          0.43560000       0.67810000       0.43950000
   128  H          0.56440000       0.32190000       0.56050000
   129  C          0.34864000       0.64333000       0.53937170
   130  C          0.65136000       0.35667000       0.46062830
   131  H          0.25610000       0.63140000       0.56670000
   132  H          0.74390000       0.36860000       0.43330000
   133  C          0.49414000       0.63523000       0.58122180
   134  C          0.50586000       0.36477000       0.41877820
   135  C          0.38193000       0.71443000       0.23043150
   136  C          0.61807000       0.28557000       0.76956850
   137  H          0.37260000       0.79420000       0.21170000
   138  H          0.62740000       0.20580000       0.78830000
   139  H          0.29810000       0.64350000       0.20360000
   140  H          0.70190000       0.35650000       0.79640000
   141  C          0.54354000       0.70623000       0.21622170
   142  C          0.45646000       0.29377000       0.78377830
   143  H          0.62540000       0.77810000       0.24170000
   144  H          0.37460000       0.22190000       0.75830000
   145  H          0.55790000       0.70720000       0.16150000
   146  H          0.44210000       0.29280000       0.83850000
   147  H          0.55220000       0.62790000       0.23620000
   148  H          0.44780000       0.37210000       0.76380000
   149  O          0.48492000       0.60812000       0.65176120
   150  O          0.51508000       0.39188000       0.34823880
   151  O          0.62353000       0.65692000       0.54658100
   152  O          0.37647000       0.34308000       0.45341900
   153  H          0.74620000       0.64400000       0.58350000
   154  H          0.25380000       0.35600000       0.41650000
   155  O          0.36412000       0.70890190       0.31218100
   156  O          0.63588000       0.29109810       0.68781900
