data_ZZZNQS08
_symmetry_space_group_name_H-M    'P1'
_symmetry_Int_Tables_number       1
loop_
_symmetry_equiv_pos_site_id
_symmetry_equiv_pos_as_xyz
1 x,y,z
_cell_length_a                   8.73364
_cell_length_b                   10.95907
_cell_length_c                   17.27091
_cell_angle_alpha                91.2324
_cell_angle_beta                 92.7034
_cell_angle_gamma                109.4724
loop_
_atom_site_label
_atom_site_type_symbol
_atom_site_fract_x
_atom_site_fract_y
_atom_site_fract_z
     1  C          0.01793000       0.03512000       0.22241130
     2  C         -0.01793000       0.96488000       0.77758870
     3  C          0.01293000       0.03002000       0.30283130
     4  C         -0.01293000       0.96998000       0.69716870
     5  C          0.14983000       0.03993000       0.34824150
     6  C          0.85017000       0.96007000       0.65175850
     7  H          0.14500000       0.03700000       0.40190000
     8  H          0.85500000       0.96300000       0.59810000
     9  C          0.29393000       0.05413000       0.31491190
    10  C          0.70607000       0.94587000       0.68508810
    11  H          0.38630000       0.06060000       0.34610000
    12  H          0.61370000       0.93940000       0.65390000
    13  C          0.30243000       0.05863000       0.23612000
    14  C          0.69757000       0.94137000       0.76388000
    15  H          0.40000000       0.06750000       0.21360000
    16  H          0.60000000       0.93250000       0.78640000
    17  C          0.16663000       0.05022000       0.19071160
    18  C          0.83337000       0.94978000       0.80928840
    19  H          0.17370000       0.05460000       0.13720000
    20  H          0.82630000       0.94540000       0.86280000
    21  C          0.87003000       0.02522000       0.17502130
    22  C          0.12997000       0.97478000       0.82497870
    23  H          0.77840000       0.01990000       0.20190000
    24  H          0.22160000       0.98010000       0.79810000
    25  C          0.85193000       0.02302000       0.09937140
    26  C          0.14807000       0.97698000       0.90062860
    27  H          0.94190000       0.02940000       0.07090000
    28  H          0.05810000       0.97060000       0.92910000
    29  C          0.69833000       0.01092000       0.05687150
    30  C          0.30167000      -0.01092000       0.94312850
    31  C          0.84893000       0.01123000       0.41270130
    32  C          0.15107000      -0.01123000       0.58729870
    33  H          0.92500000       0.08900000       0.43810000
    34  H          0.07500000       0.91100000       0.56190000
    35  H          0.87220000       0.93690000       0.43280000
    36  H          0.12780000       0.06310000       0.56720000
    37  C          0.67953000       0.00183000       0.42765150
    38  C          0.32047000      -0.00183000       0.57234850
    39  H          0.65760000       0.07570000       0.40750000
    40  H          0.34240000       0.92430000       0.59250000
    41  H          0.66600000      -0.00050000       0.48250000
    42  H          0.33400000       0.00050000       0.51750000
    43  H          0.60520000       0.92420000       0.40260000
    44  H          0.39480000       0.07580000       0.59740000
    45  O          0.69522000       0.01020170       0.98462100
    46  O          0.30478000      -0.01020170       0.01537900
    47  O          0.57262000       0.00053170       0.09525800
    48  O          0.42738000      -0.00053170       0.90474200
    49  H          0.46920000       0.01000000       0.05260000
    50  H          0.53080000      -0.01000000       0.94740000
    51  O          0.86409180       0.01490160       0.33134800
    52  O          0.13590820       0.98509840       0.66865200
    53  C          0.80742000       0.35272000       0.13506120
    54  C          0.19258000       0.64728000       0.86493880
    55  C          0.80542000       0.33902000       0.05442120
    56  C          0.19458000       0.66098000       0.94557880
    57  C          0.66993000       0.33332000       0.00898140
    58  C          0.33007000       0.66668000       0.99101860
    59  H          0.67010000       0.32460000       0.95530000
    60  H          0.32990000       0.67540000       0.04470000
    61  C          0.53293000       0.34053000       0.04312170
    62  C          0.46707000       0.65947000       0.95687830
    63  H          0.44080000       0.33570000       0.01220000
    64  H          0.55920000       0.66430000       0.98780000
    65  C          0.53173000       0.35473000       0.12155180
    66  C          0.46827000       0.64527000       0.87844820
    67  H          0.43970000       0.36040000       0.14420000
    68  H          0.56030000       0.63960000       0.85580000
    69  C          0.66683000       0.36042000       0.16679150
    70  C          0.33317000       0.63958000       0.83320850
    71  H          0.66500000       0.36970000       0.22030000
    72  H          0.33500000       0.63030000       0.77970000
    73  C          0.95193000       0.35932190       0.18293120
    74  C          0.04807000       0.64067810       0.81706880
    75  H          0.04410000       0.36510000       0.15640000
    76  H          0.95590000       0.63490000       0.84360000
    77  C          0.96843000       0.35822000       0.25900120
    78  C          0.03157000       0.64178000       0.74099880
    79  H          0.87830000       0.35310000       0.28700000
    80  H          0.12170000       0.64690000       0.71300000
    81  C          0.11743000       0.36432000       0.30209120
    82  C          0.88257000       0.63568000       0.69790880
    83  C          0.95112000       0.31522000       0.94337890
    84  C          0.04888000       0.68478000       0.05662110
    85  H          0.93730000       0.38850000       0.91720000
    86  H          0.06270000       0.61150000       0.08280000
    87  H          0.86500000       0.23720000       0.92420000
    88  H          0.13500000       0.76280000       0.07580000
    89  C          0.11413000       0.30472000       0.92890870
    90  C          0.88587000       0.69528000       0.07109130
    91  H          0.19790000       0.38370000       0.94620000
    92  H          0.80210000       0.61630000       0.05380000
    93  H          0.12080000       0.28960000       0.87440000
    94  H          0.87920000       0.71040000       0.12560000
    95  H          0.12790000       0.23390000       0.95680000
    96  H          0.87210000       0.76610000       0.04320000
    97  O          0.11142000       0.34873160       0.37454800
    98  O          0.88858000       0.65126840       0.62545200
    99  H          0.23350000       0.34780000       0.41360000
   100  H          0.76650000       0.65220000       0.58640000
   101  O          0.24646190       0.38378160       0.26678800
   102  O          0.75353810       0.61621840       0.73321200
   103  O          0.94565160       0.33197150       0.02525700
   104  O          0.05434840       0.66802850       0.97474300
   105  C          0.20442000       0.67612000       0.41880120
   106  C          0.79558000       0.32388000       0.58119880
   107  C          0.21712000       0.69712000       0.33960120
   108  C          0.78288000       0.30288000       0.66039880
   109  C          0.08733000       0.70342000       0.29414140
   110  C          0.91267000       0.29658000       0.70585860
   111  H          0.09770000       0.71730000       0.24140000
   112  H          0.90230000       0.28270000       0.75860000
   113  C          0.94187000       0.68933000       0.32632180
   114  C          0.05813000       0.31067000       0.67367820
   115  H          0.85410000       0.69340000       0.29510000
   116  H          0.14590000       0.30660000       0.70490000
   117  C          0.92497000       0.66942000       0.40403180
   118  C          0.07503000       0.33058000       0.59596820
   119  H          0.82660000       0.66060000       0.42570000
   120  H          0.17340000       0.33940000       0.57430000
   121  C          0.05403000       0.66262000       0.44922140
   122  C          0.94597000       0.33738000       0.55077860
   123  H          0.04180000       0.64850000       0.50180000
   124  H          0.95820000       0.35150000       0.49820000
   125  C          0.34203000       0.66652000       0.46571120
   126  C          0.65797000       0.33348000       0.53428880
   127  H          0.43670000       0.67810000       0.44000000
   128  H          0.56330000       0.32190000       0.56000000
   129  C          0.34963000       0.64342000       0.54027130
   130  C          0.65037000       0.35658000       0.45972870
   131  H          0.25730000       0.63180000       0.56790000
   132  H          0.74270000       0.36820000       0.43210000
   133  C          0.49403000       0.63502000       0.58137130
   134  C          0.50597000       0.36498000       0.41862870
   135  C          0.38283000       0.71363000       0.23053120
   136  C          0.61717000       0.28637000       0.76946880
   137  H          0.37370000       0.79380000       0.21160000
   138  H          0.62630000       0.20620000       0.78840000
   139  H          0.29830000       0.64170000       0.20400000
   140  H          0.70170000       0.35830000       0.79600000
   141  C          0.54533000       0.70603000       0.21584130
   142  C          0.45467000       0.29397000       0.78415870
   143  H          0.62780000       0.77650000       0.24340000
   144  H          0.37220000       0.22350000       0.75660000
   145  H          0.56150000       0.71140000       0.16130000
   146  H          0.43850000       0.28860000       0.83870000
   147  H          0.55180000       0.62530000       0.23340000
   148  H          0.44820000       0.37470000       0.76660000
   149  O          0.48532000       0.60726180       0.65238900
   150  O          0.51468000       0.39273820       0.34761100
   151  H          0.61110000       0.61230000       0.68920000
   152  H          0.38890000       0.38770000       0.31080000
   153  O          0.62491190       0.65652160       0.54689800
   154  O          0.37508810       0.34347840       0.45310200
   155  O          0.36550160       0.70875160       0.31198800
   156  O          0.63449840       0.29124840       0.68801200
