data_ZZZNQS03
_symmetry_space_group_name_H-M    'P1'
_symmetry_Int_Tables_number       1
loop_
_symmetry_equiv_pos_site_id
_symmetry_equiv_pos_as_xyz
1 x,y,z
_cell_length_a                   6.69926
_cell_length_b                   8.68078
_cell_length_c                   10.01519
_cell_angle_alpha                72.0192
_cell_angle_beta                 71.4642
_cell_angle_gamma                67.8672
loop_
_atom_site_label
_atom_site_type_symbol
_atom_site_fract_x
_atom_site_fract_y
_atom_site_fract_z
     1  O          0.31442000      -0.00638170       0.17326150
     2  O          0.68558000       0.00638170       0.82673850
     3  O          0.81642000       0.02514190       0.40783160
     4  O          0.18358000       0.97485810       0.59216840
     5  C          0.53583000       0.73198000       0.28554190
     6  C          0.46417000       0.26802000       0.71445810
     7  O          0.00812000       0.78368000       0.53478160
     8  O          0.99188000       0.21632000       0.46521840
     9  H          0.05200000       0.85180000       0.55350000
    10  H          0.94800000       0.14820000       0.44650000
    11  C          0.37443000       0.82078000       0.20182000
    12  C          0.62557000       0.17922000       0.79818000
    13  C          0.78103000       0.76127000       0.41232000
    14  C          0.21897000       0.23873000       0.58768000
    15  H          0.83400000       0.64120000       0.44420000
    16  H          0.16600000       0.35880000       0.55580000
    17  C          0.15693000       0.08843000       0.08512000
    18  C          0.84307000       0.91157000       0.91488000
    19  H          0.01700000       0.05980000       0.13000000
    20  H          0.98300000       0.94020000       0.87000000
    21  H          0.21580000       0.06050000      -0.01140000
    22  H          0.78420000       0.93950000       0.01140000
    23  C          0.86753000       0.86907000       0.45132000
    24  C          0.13247000       0.13093000       0.54868000
    25  C          0.11644000       0.27313000       0.07232000
    26  C          0.88356000       0.72687000       0.92768000
    27  H          0.05640000       0.29950000       0.16840000
    28  H          0.94360000       0.70050000       0.83160000
    29  H          0.01010000       0.34130000       0.01180000
    30  H          0.98990000       0.65870000      -0.01180000
    31  H          0.25600000       0.29970000       0.02840000
    32  H          0.74400000       0.70030000       0.97160000
    33  C          0.60123000       0.55407000       0.31712000
    34  C          0.39877000       0.44593000       0.68288000
    35  H          0.70890000       0.49260000       0.37310000
    36  H          0.29110000       0.50740000       0.62690000
    37  C          0.62903000       0.82767000       0.33292000
    38  C          0.37097000       0.17233000       0.66708000
    39  H          0.57700000       0.94830000       0.30470000
    40  H          0.42300000       0.05170000       0.69530000
    41  C          0.28793000       0.72977000       0.15402000
    42  C          0.71207000       0.27023000       0.84598000
    43  H          0.18000000       0.78910000       0.09790000
    44  H          0.82000000       0.21090000       0.90210000
    45  C          0.51504000       0.46517000       0.26972000
    46  C          0.48496000       0.53483000       0.73028000
    47  H          0.56240000       0.34420000       0.29290000
    48  H          0.43760000       0.65580000       0.70710000
    49  C          0.35824000       0.55407000       0.18772000
    50  C          0.64176000       0.44593000       0.81228000
    51  H          0.29840000       0.49340000       0.15440000
    52  H          0.70160000       0.50660000       0.84560000
