data_ZZZPUS01
_symmetry_space_group_name_H-M    'P1'
_symmetry_Int_Tables_number       1
loop_
_symmetry_equiv_pos_site_id
_symmetry_equiv_pos_as_xyz
1 x,y,z
_cell_length_a                   20.162
_cell_length_b                   9.051
_cell_length_c                   7.851
_cell_angle_alpha                90.0
_cell_angle_beta                 90.0
_cell_angle_gamma                90.0
loop_
_atom_site_label
_atom_site_type_symbol
_atom_site_fract_x
_atom_site_fract_y
_atom_site_fract_z
     1  S          0.39500000       0.73350000       0.15790000
     2  S          0.10500000       0.23350000       0.65790000
     3  S          0.89500000       0.73350000       0.34210000
     4  S          0.60500000       0.23350000       0.84210000
     5  O          0.36620000       0.86290000       0.23500000
     6  O          0.13380000       0.36290000       0.73500000
     7  O          0.86620000       0.86290000       0.26500000
     8  O          0.63380000       0.36290000       0.76500000
     9  O          0.40330000       0.59880000       0.25310000
    10  O          0.09670000       0.09880000       0.75310000
    11  O          0.90330000       0.59880000       0.24690000
    12  O          0.59670000       0.09880000       0.74690000
    13  O          0.50040000       0.59350000       0.96630000
    14  O         -0.00040000       0.09350000       0.46630000
    15  O          0.00040000       0.59350000       0.53370000
    16  O          0.49960000       0.09350000       0.03370000
    17  N          0.54660000       0.81350000       0.88670000
    18  N          0.95340000       0.31350000       0.38670000
    19  N          0.04660000       0.81350000       0.61330000
    20  N          0.45340000       0.31350000       0.11330000
    21  N          0.46760000       0.81820000       0.09070000
    22  N          0.03240000       0.31820000       0.59070000
    23  N          0.96760000       0.81820000       0.40930000
    24  N          0.53240000       0.31820000       0.90930000
    25  C          0.62430000       0.74050000       0.39290000
    26  C          0.87570000       0.24050000       0.89290000
    27  C          0.12430000       0.74050000       0.10710000
    28  C          0.37570000       0.24050000       0.60710000
    29  C          0.58310000       0.63570000       0.42070000
    30  C          0.91690000       0.13570000       0.92070000
    31  C          0.08310000       0.63570000       0.07930000
    32  C          0.41690000       0.13570000       0.57930000
    33  C          0.54580000       0.71860000       0.58730000
    34  C          0.95420000       0.21860000       0.08730000
    35  C          0.04580000       0.71860000       0.91270000
    36  C          0.45420000       0.21860000       0.41270000
    37  C          0.58960000       0.73190000       0.75990000
    38  C          0.91040000       0.23190000       0.25990000
    39  C          0.08960000       0.73190000       0.74010000
    40  C          0.41040000       0.23190000       0.24010000
    41  C          0.50750000       0.71520000       0.97680000
    42  C          0.99250000       0.21520000       0.47680000
    43  C          0.00750000       0.71520000       0.52320000
    44  C          0.49250000       0.21520000       0.02320000
    45  C          0.35390000       0.70270000       0.97490000
    46  C          0.14610000       0.20270000       0.47490000
    47  C          0.85390000       0.70270000       0.52510000
    48  C          0.64610000       0.20270000       0.02510000
    49  C          0.35800000       0.80260000       0.84000000
    50  C          0.14200000       0.30260000       0.34000000
    51  C          0.85800000       0.80260000       0.66000000
    52  C          0.64200000       0.30260000       0.16000000
    53  C          0.32100000       0.77910000       0.69220000
    54  C          0.17900000       0.27910000       0.19220000
    55  C          0.82100000       0.77910000       0.80780000
    56  C          0.67900000       0.27910000       0.30780000
    57  C          0.27990000       0.65560000       0.67930000
    58  C          0.22010000       0.15560000       0.17930000
    59  C          0.77990000       0.65560000       0.82070000
    60  C          0.72010000       0.15560000       0.32070000
    61  C          0.27580000       0.55570000       0.81420000
    62  C          0.22420000       0.05570000       0.31420000
    63  C          0.77580000       0.55570000       0.68580000
    64  C          0.72420000       0.05570000       0.18580000
    65  C          0.31280000       0.57920000       0.96200000
    66  C          0.18720000       0.07920000       0.46200000
    67  C          0.81280000       0.57920000       0.53800000
    68  C          0.68720000       0.07920000       0.03800000
    69  C          0.24430000       0.65790000       0.50500000
    70  C          0.25570000       0.15790000       0.00500000
    71  C          0.74430000       0.65790000      -0.00500000
    72  C          0.75570000       0.15790000       0.49500000
    73  H          0.65300000       0.66800000       0.27700000
    74  H          0.84700000       0.16800000       0.77700000
    75  H          0.15300000       0.66800000       0.22300000
    76  H          0.34700000       0.16800000       0.72300000
    77  H          0.66000000       0.73800000       0.48600000
    78  H          0.84000000       0.23800000      -0.01400000
    79  H          0.16000000       0.73800000       0.01400000
    80  H          0.34000000       0.23800000       0.51400000
    81  H          0.60400000       0.82000000       0.34200000
    82  H          0.89600000       0.32000000       0.84200000
    83  H          0.10400000       0.82000000       0.15800000
    84  H          0.39600000       0.32000000       0.65800000
    85  H          0.54800000       0.61500000       0.31900000
    86  H          0.95200000       0.11500000       0.81900000
    87  H          0.04800000       0.61500000       0.18100000
    88  H          0.45200000       0.11500000       0.68100000
    89  H          0.60400000       0.53200000       0.46300000
    90  H          0.89600000       0.03200000       0.96300000
    91  H          0.10400000       0.53200000       0.03700000
    92  H          0.39600000       0.03200000       0.53700000
    93  H          0.50100000       0.65600000       0.61700000
    94  H         -0.00100000       0.15600000       0.11700000
    95  H          0.00100000       0.65600000       0.88300000
    96  H          0.49900000       0.15600000       0.38300000
    97  H          0.53200000       0.82900000       0.54900000
    98  H          0.96800000       0.32900000       0.04900000
    99  H          0.03200000       0.82900000       0.95100000
   100  H          0.46800000       0.32900000       0.45100000
   101  H          0.63500000       0.78800000       0.73400000
   102  H          0.86500000       0.28800000       0.23400000
   103  H          0.13500000       0.78800000       0.76600000
   104  H          0.36500000       0.28800000       0.26600000
   105  H          0.59900000       0.62200000       0.81000000
   106  H          0.90100000       0.12200000       0.31000000
   107  H          0.09900000       0.62200000       0.69000000
   108  H          0.40100000       0.12200000       0.19000000
   109  H          0.54700000       0.93100000       0.90230000
   110  H          0.95300000       0.43100000       0.40230000
   111  H          0.04700000       0.93100000       0.59770000
   112  H          0.45300000       0.43100000       0.09770000
   113  H          0.48200000       0.92800000       0.12500000
   114  H          0.01800000       0.42800000       0.62500000
   115  H          0.98200000       0.92800000       0.37500000
   116  H          0.51800000       0.42800000       0.87500000
   117  H          0.38900000       0.89800000       0.85000000
   118  H          0.11100000       0.39800000       0.35000000
   119  H          0.88900000       0.89800000       0.65000000
   120  H          0.61100000       0.39800000       0.15000000
   121  H          0.32400000       0.85600000       0.58800000
   122  H          0.17600000       0.35600000       0.08800000
   123  H          0.82400000       0.85600000       0.91200000
   124  H          0.67600000       0.35600000       0.41200000
   125  H          0.24300000       0.46000000       0.81500000
   126  H          0.25700000       0.96000000       0.31500000
   127  H          0.74300000       0.46000000       0.68500000
   128  H          0.75700000       0.96000000       0.18500000
   129  H          0.31400000       0.51300000       0.04600000
   130  H          0.18600000       0.01300000       0.54600000
   131  H          0.81400000       0.51300000       0.45400000
   132  H          0.68600000       0.01300000       0.95400000
   133  H          0.21200000       0.56800000       0.48000000
   134  H          0.28800000       0.06800000       0.98000000
   135  H          0.71200000       0.56800000       0.02000000
   136  H          0.78800000       0.06800000       0.52000000
   137  H          0.28500000       0.65800000       0.41500000
   138  H          0.21500000       0.15800000       0.91500000
   139  H          0.78500000       0.65800000       0.08500000
   140  H          0.71500000       0.15800000       0.58500000
   141  H          0.21800000       0.76200000       0.49800000
   142  H          0.28200000       0.26200000      -0.00200000
   143  H          0.71800000       0.76200000       0.00200000
   144  H          0.78200000       0.26200000       0.50200000
