data_ZZZPUS10
_symmetry_space_group_name_H-M    'P1'
_symmetry_Int_Tables_number       1
loop_
_symmetry_equiv_pos_site_id
_symmetry_equiv_pos_as_xyz
1 x,y,z
_cell_length_a                   15.8516
_cell_length_b                   9.2884
_cell_length_c                   19.6918
_cell_angle_alpha                90.0
_cell_angle_beta                 90.0
_cell_angle_gamma                90.0
loop_
_atom_site_label
_atom_site_type_symbol
_atom_site_fract_x
_atom_site_fract_y
_atom_site_fract_z
     1  S          0.10542700       0.17314120       0.39584600
     2  S          0.39457300       0.32685880       0.89584600
     3  S          0.89457300       0.17314120       0.10415400
     4  S          0.60542700       0.32685880       0.60415400
     5  S          0.89457300       0.82685880       0.60415400
     6  S          0.60542700       0.67314120       0.10415400
     7  S          0.10542700       0.82685880       0.89584600
     8  S          0.39457300       0.67314120       0.39584600
     9  O          0.26888190       0.03473000       0.42887160
    10  O          0.23111810       0.46527000       0.92887160
    11  O          0.73111810       0.03473000       0.07112840
    12  O          0.76888190       0.46527000       0.57112840
    13  O          0.73111810       0.96527000       0.57112840
    14  O          0.76888190       0.53473000       0.07112840
    15  O          0.26888190       0.96527000       0.92887160
    16  O          0.23111810       0.53473000       0.42887160
    17  C          0.26713000       0.16614000       0.43365180
    18  C          0.23287000       0.33386000       0.93365180
    19  C          0.73287000       0.16614000       0.06634820
    20  C          0.76713000       0.33386000       0.56634820
    21  C          0.73287000       0.83386000       0.56634820
    22  C          0.76713000       0.66614000       0.06634820
    23  C          0.26713000       0.83386000       0.93365180
    24  C          0.23287000       0.66614000       0.43365180
    25  N          0.33333000       0.24695000       0.44662000
    26  N          0.16667000       0.25305000       0.94662000
    27  N          0.66667000       0.24695000       0.05338000
    28  N          0.83333000       0.25305000       0.55338000
    29  N          0.66667000       0.75305000       0.55338000
    30  N          0.83333000       0.74695000       0.05338000
    31  N          0.33333000       0.75305000       0.94662000
    32  N          0.16667000       0.74695000       0.44662000
    33  O          0.04712000       0.28914000       0.39842000
    34  O          0.45288000       0.21086000       0.89842000
    35  O          0.95288000       0.28914000       0.10158000
    36  O          0.54712000       0.21086000       0.60158000
    37  O          0.95288000       0.71086000       0.60158000
    38  O          0.54712000       0.78914000       0.10158000
    39  O          0.04712000       0.71086000       0.89842000
    40  O          0.45288000       0.78914000       0.39842000
    41  O          0.08672000       0.04313000       0.42988150
    42  O          0.41328000       0.45687000       0.92988150
    43  O          0.91328000       0.04313000       0.07011850
    44  O          0.58672000       0.45687000       0.57011850
    45  O          0.91328000       0.95687000       0.57011850
    46  O          0.58672000       0.54313000       0.07011850
    47  O          0.08672000       0.95687000       0.92988150
    48  O          0.41328000       0.54313000       0.42988150
    49  N          0.19243000       0.24095000       0.42742000
    50  N          0.30757000       0.25905000       0.92742000
    51  N          0.80757000       0.24095000       0.07258000
    52  N          0.69243000       0.25905000       0.57258000
    53  N          0.80757000       0.75905000       0.57258000
    54  N          0.69243000       0.74095000       0.07258000
    55  N          0.19243000       0.75905000       0.92742000
    56  N          0.30757000       0.74095000       0.42742000
    57  C          0.12713000       0.13415000       0.31122000
    58  C          0.37287000       0.36585000       0.81122000
    59  C          0.87287000       0.13415000       0.18878000
    60  C          0.62713000       0.36585000       0.68878000
    61  C          0.87287000       0.86585000       0.68878000
    62  C          0.62713000       0.63415000       0.18878000
    63  C          0.12713000       0.86585000       0.81122000
    64  C          0.37287000       0.63415000       0.31122000
    65  C          0.41704000       0.18986000       0.45383000
    66  C          0.08296000       0.31014000       0.95383000
    67  C          0.58296000       0.18986000       0.04617000
    68  C          0.91704000       0.31014000       0.54617000
    69  C          0.58296000       0.81014000       0.54617000
    70  C          0.91704000       0.68986000       0.04617000
    71  C          0.41704000       0.81014000       0.95383000
    72  C          0.08296000       0.68986000       0.45383000
    73  H          0.41400000       0.09670000       0.47590000
    74  H          0.08600000       0.40330000       0.97590000
    75  H          0.58600000       0.09670000       0.02410000
    76  H          0.91400000       0.40330000       0.52410000
    77  H          0.58600000       0.90330000       0.52410000
    78  H          0.91400000       0.59670000       0.02410000
    79  H          0.41400000       0.90330000       0.97590000
    80  H          0.08600000       0.59670000       0.47590000
    81  H          0.44980000       0.25340000       0.48260000
    82  H          0.05020000       0.24660000       0.98260000
    83  H          0.55020000       0.25340000       0.01740000
    84  H          0.94980000       0.24660000       0.51740000
    85  H          0.55020000       0.74660000       0.51740000
    86  H          0.94980000       0.75340000       0.01740000
    87  H          0.44980000       0.74660000       0.98260000
    88  H          0.05020000       0.75340000       0.48260000
    89  C          0.15594000       0.07179000       0.17523000
    90  C          0.34406000       0.42821000       0.67523000
    91  C          0.84406000       0.07179000       0.32477000
    92  C          0.65594000       0.42821000       0.82477000
    93  C          0.84406000       0.92821000       0.82477000
    94  C          0.65594000       0.57179000       0.32477000
    95  C          0.15594000       0.92821000       0.67523000
    96  C          0.34406000       0.57179000       0.17523000
    97  C          0.46094000       0.17336000       0.38664000
    98  C          0.03906000       0.32664000       0.88664000
    99  C          0.53906000       0.17336000       0.11336000
   100  C          0.96094000       0.32664000       0.61336000
   101  C          0.53906000       0.82664000       0.61336000
   102  C          0.96094000       0.67336000       0.11336000
   103  C          0.46094000       0.82664000       0.88664000
   104  C          0.03906000       0.67336000       0.38664000
   105  H          0.42980000       0.10480000       0.35910000
   106  H          0.07020000       0.39520000       0.85910000
   107  H          0.57020000       0.10480000       0.14090000
   108  H          0.92980000       0.39520000       0.64090000
   109  H          0.57020000       0.89520000       0.64090000
   110  H          0.92980000       0.60480000       0.14090000
   111  H          0.42980000       0.89520000       0.85910000
   112  H          0.07020000       0.60480000       0.35910000
   113  H          0.46000000       0.26510000       0.36320000
   114  H          0.04000000       0.23490000       0.86320000
   115  H          0.54000000       0.26510000       0.13680000
   116  H          0.96000000       0.23490000       0.63680000
   117  H          0.54000000       0.73490000       0.63680000
   118  H          0.96000000       0.76510000       0.13680000
   119  H          0.46000000       0.73490000       0.86320000
   120  H          0.04000000       0.76510000       0.36320000
   121  C          0.11505000       0.23108000       0.26184000
   122  C          0.38495000       0.26892000       0.76184000
   123  C          0.88495000       0.23108000       0.23816000
   124  C          0.61505000       0.26892000       0.73816000
   125  C          0.88495000       0.76892000       0.73816000
   126  C          0.61505000       0.73108000       0.23816000
   127  C          0.11505000       0.76892000       0.76184000
   128  C          0.38495000       0.73108000       0.26184000
   129  H          0.09410000       0.32170000       0.27260000
   130  H          0.40590000       0.17830000       0.77260000
   131  H          0.90590000       0.32170000       0.22740000
   132  H          0.59410000       0.17830000       0.72740000
   133  H          0.90590000       0.67830000       0.72740000
   134  H          0.59410000       0.82170000       0.22740000
   135  H          0.09410000       0.67830000       0.77260000
   136  H          0.40590000       0.82170000       0.27260000
   137  C          0.17226000       0.03441100       0.10033000
   138  C          0.32774000       0.46558900       0.60033000
   139  C          0.82774000       0.03441100       0.39967000
   140  C          0.67226000       0.46558900       0.89967000
   141  C          0.82774000       0.96558900       0.89967000
   142  C          0.67226000       0.53441100       0.39967000
   143  C          0.17226000       0.96558900       0.60033000
   144  C          0.32774000       0.53441100       0.10033000
   145  H          0.12590000       0.06790000       0.07310000
   146  H          0.37410000       0.43210000       0.57310000
   147  H          0.87410000       0.06790000       0.42690000
   148  H          0.62590000       0.43210000       0.92690000
   149  H          0.87410000       0.93210000       0.92690000
   150  H          0.62590000       0.56790000       0.42690000
   151  H          0.12590000       0.93210000       0.57310000
   152  H          0.37410000       0.56790000       0.07310000
   153  H          0.17740000       0.93190000       0.09550000
   154  H          0.32260000       0.56810000       0.59550000
   155  H          0.82260000       0.93190000       0.40450000
   156  H          0.67740000       0.56810000       0.90450000
   157  H          0.82260000       0.06810000       0.90450000
   158  H          0.67740000       0.43190000       0.40450000
   159  H          0.17740000       0.06810000       0.59550000
   160  H          0.32260000       0.43190000       0.09550000
   161  H          0.22330000       0.07990000       0.08550000
   162  H          0.27670000       0.42010000       0.58550000
   163  H          0.77670000       0.07990000       0.41450000
   164  H          0.72330000       0.42010000       0.91450000
   165  H          0.77670000       0.92010000       0.91450000
   166  H          0.72330000       0.57990000       0.41450000
   167  H          0.22330000       0.92010000       0.58550000
   168  H          0.27670000       0.57990000       0.08550000
   169  C          0.15735000       0.00027000       0.29133000
   170  C          0.34265000       0.49973000       0.79133000
   171  C          0.84265000       0.00027000       0.20867000
   172  C          0.65735000       0.49973000       0.70867000
   173  C          0.84265000      -0.00027000       0.70867000
   174  C          0.65735000       0.50027000       0.20867000
   175  C          0.15735000      -0.00027000       0.79133000
   176  C          0.34265000       0.50027000       0.29133000
   177  H          0.16740000       0.92960000       0.32380000
   178  H          0.33260000       0.57040000       0.82380000
   179  H          0.83260000       0.92960000       0.17620000
   180  H          0.66740000       0.57040000       0.67620000
   181  H          0.83260000       0.07040000       0.67620000
   182  H          0.66740000       0.42960000       0.17620000
   183  H          0.16740000       0.07040000       0.82380000
   184  H          0.33260000       0.42960000       0.32380000
   185  C          0.17235000       0.97112000       0.22383000
   186  C          0.32765000       0.52888000       0.72383000
   187  C          0.82765000       0.97112000       0.27617000
   188  C          0.67235000       0.52888000       0.77617000
   189  C          0.82765000       0.02888000       0.77617000
   190  C          0.67235000       0.47112000       0.27617000
   191  C          0.17235000       0.02888000       0.72383000
   192  C          0.32765000       0.47112000       0.22383000
   193  H          0.19390000       0.88200000       0.21130000
   194  H          0.30610000       0.61800000       0.71130000
   195  H          0.80610000       0.88200000       0.28870000
   196  H          0.69390000       0.61800000       0.78870000
   197  H          0.80610000       0.11800000       0.78870000
   198  H          0.69390000       0.38200000       0.28870000
   199  H          0.19390000       0.11800000       0.71130000
   200  H          0.30610000       0.38200000       0.21130000
   201  C          0.54995000       0.12389000       0.39235000
   202  C          0.95005000       0.37611000       0.89235000
   203  C          0.45005000       0.12389000       0.10765000
   204  C          0.04995000       0.37611000       0.60765000
   205  C          0.45005000       0.87611000       0.60765000
   206  C          0.04995000       0.62389000       0.10765000
   207  C          0.54995000       0.87611000       0.89235000
   208  C          0.95005000       0.62389000       0.39235000
   209  H          0.55180000       0.03480000       0.41810000
   210  H          0.94820000       0.46520000       0.91810000
   211  H          0.44820000       0.03480000       0.08190000
   212  H          0.05180000       0.46520000       0.58190000
   213  H          0.44820000       0.96520000       0.58190000
   214  H          0.05180000       0.53480000       0.08190000
   215  H          0.55180000       0.96520000       0.91810000
   216  H          0.94820000       0.53480000       0.41810000
   217  H          0.58260000       0.19530000       0.41670000
   218  H          0.91740000       0.30470000       0.91670000
   219  H          0.41740000       0.19530000       0.08330000
   220  H          0.08260000       0.30470000       0.58330000
   221  H          0.41740000       0.80470000       0.58330000
   222  H          0.08260000       0.69530000       0.08330000
   223  H          0.58260000       0.80470000       0.91670000
   224  H          0.91740000       0.69530000       0.41670000
   225  C          0.13306000       0.19831000       0.19534000
   226  C          0.36694000       0.30169000       0.69534000
   227  C          0.86694000       0.19831000       0.30466000
   228  C          0.63306000       0.30169000       0.80466000
   229  C          0.86694000       0.80169000       0.80466000
   230  C          0.63306000       0.69831000       0.30466000
   231  C          0.13306000       0.80169000       0.69534000
   232  C          0.36694000       0.69831000       0.19534000
   233  H          0.12850000       0.27110000       0.16310000
   234  H          0.37150000       0.22890000       0.66310000
   235  H          0.87150000       0.27110000       0.33690000
   236  H          0.62850000       0.22890000       0.83690000
   237  H          0.87150000       0.72890000       0.83690000
   238  H          0.62850000       0.77110000       0.33690000
   239  H          0.12850000       0.72890000       0.66310000
   240  H          0.37150000       0.77110000       0.16310000
   241  C          0.58816000       0.09981200       0.32386000
   242  C          0.91184000       0.40018800       0.82386000
   243  C          0.41184000       0.09981200       0.17614000
   244  C          0.08816000       0.40018800       0.67614000
   245  C          0.41184000       0.90018800       0.67614000
   246  C          0.08816000       0.59981200       0.17614000
   247  C          0.58816000       0.90018800       0.82386000
   248  C          0.91184000       0.59981200       0.32386000
   249  H          0.55920000       0.02260000       0.30140000
   250  H          0.94080000       0.47740000       0.80140000
   251  H          0.44080000       0.02260000       0.19860000
   252  H          0.05920000       0.47740000       0.69860000
   253  H          0.44080000       0.97740000       0.69860000
   254  H          0.05920000       0.52260000       0.19860000
   255  H          0.55920000       0.97740000       0.80140000
   256  H          0.94080000       0.52260000       0.30140000
   257  H          0.64660000       0.07550000       0.32890000
   258  H          0.85340000       0.42450000       0.82890000
   259  H          0.35340000       0.07550000       0.17110000
   260  H          0.14660000       0.42450000       0.67110000
   261  H          0.35340000       0.92450000       0.67110000
   262  H          0.14660000       0.57550000       0.17110000
   263  H          0.64660000       0.92450000       0.82890000
   264  H          0.85340000       0.57550000       0.32890000
   265  H          0.58310000       0.18610000       0.29730000
   266  H          0.91690000       0.31390000       0.79730000
   267  H          0.41690000       0.18610000       0.20270000
   268  H          0.08310000       0.31390000       0.70270000
   269  H          0.41690000       0.81390000       0.70270000
   270  H          0.08310000       0.68610000       0.20270000
   271  H          0.58310000       0.81390000       0.79730000
   272  H          0.91690000       0.68610000       0.29730000
   273  H          0.19130000       0.31850000       0.42820000
   274  H          0.30870000       0.18150000       0.92820000
   275  H          0.80870000       0.31850000       0.07180000
   276  H          0.69130000       0.18150000       0.57180000
   277  H          0.80870000       0.68150000       0.57180000
   278  H          0.69130000       0.81850000       0.07180000
   279  H          0.19130000       0.68150000       0.92820000
   280  H          0.30870000       0.81850000       0.42820000
   281  H          0.33030000       0.32850000       0.44420000
   282  H          0.16970000       0.17150000       0.94420000
   283  H          0.66970000       0.32850000       0.05580000
   284  H          0.83030000       0.17150000       0.55580000
   285  H          0.66970000       0.67150000       0.55580000
   286  H          0.83030000       0.82850000       0.05580000
   287  H          0.33030000       0.67150000       0.94420000
   288  H          0.16970000       0.82850000       0.44420000
