data_ZZZPUS21
_symmetry_space_group_name_H-M    'P1'
_symmetry_Int_Tables_number       1
loop_
_symmetry_equiv_pos_site_id
_symmetry_equiv_pos_as_xyz
1 x,y,z
_cell_length_a                   9.02562
_cell_length_b                   17.14435
_cell_length_c                   17.79045
_cell_angle_alpha                90.0
_cell_angle_beta                 94.2683
_cell_angle_gamma                90.0
loop_
_atom_site_label
_atom_site_type_symbol
_atom_site_fract_x
_atom_site_fract_y
_atom_site_fract_z
     1  S          0.92184140       0.04470900       0.24387800
     2  S          0.92184140       0.95529100       0.74387800
     3  O          0.63484000       0.04792000       0.31312000
     4  O          0.63484000       0.95208000       0.81312000
     5  O          0.94834000       0.00412000       0.31392000
     6  O          0.94834000      -0.00412000       0.81392000
     7  O          0.01314000       0.02952000       0.18312000
     8  O          0.01314000       0.97048000       0.68312000
     9  N          0.50604000       0.00073000       0.20772000
    10  N          0.50604000      -0.00073000       0.70772000
    11  H          0.51300000       0.98560000       0.16080000
    12  H          0.51300000       0.01440000       0.66080000
    13  C          0.62656000       0.02593000       0.24693000
    14  C          0.62656000       0.97407000       0.74693000
    15  C          0.92666000       0.14543000       0.26433000
    16  C          0.92666000       0.85457000       0.76433000
    17  N          0.75384000       0.02733000       0.20662000
    18  N          0.75384000       0.97267000       0.70662000
    19  H          0.74280000       0.01820000       0.15780000
    20  H          0.74280000       0.98180000       0.65780000
    21  C         -0.00764000       0.17034000       0.33283000
    22  C         -0.00764000       0.82966000       0.83283000
    23  H          0.02890000       0.13350000       0.36970000
    24  H          0.02890000       0.86650000       0.86970000
    25  C          0.36066000      -0.00333000       0.23973000
    26  C          0.36066000       0.00333000       0.73973000
    27  H          0.28380000       0.01850000       0.20290000
    28  H          0.28380000       0.98150000       0.70290000
    29  H          0.36310000       0.02930000       0.28570000
    30  H          0.36310000       0.97070000       0.78570000
    31  C          0.87446000       0.19964000       0.20993000
    32  C          0.87446000       0.80036000       0.70993000
    33  H          0.83160000       0.18270000       0.16230000
    34  H          0.83160000       0.81730000       0.66230000
    35  C          0.00396000       0.24924000       0.34683000
    36  C          0.00396000       0.75076000       0.84683000
    37  H          0.04950000       0.26630000       0.39380000
    38  H          0.04950000       0.73370000       0.89380000
    39  C          0.95176000       0.30384000       0.29513000
    40  C          0.95176000       0.69616000       0.79513000
    41  C          0.88606000       0.27723000       0.22653000
    42  C          0.88606000       0.72277000       0.72653000
    43  H          0.84830000       0.31420000       0.19010000
    44  H          0.84830000       0.68580000       0.69010000
    45  C          0.95957000       0.38924000       0.31354000
    46  C          0.95957000       0.61076000       0.81354000
    47  H          0.06010000       0.40230000       0.33420000
    48  H          0.06010000       0.59770000       0.83420000
    49  H          0.88830000       0.40140000       0.35080000
    50  H          0.88830000       0.59860000       0.85080000
    51  H          0.93530000       0.41960000       0.26760000
    52  H          0.93530000       0.58040000       0.76760000
    53  C          0.31786000       0.91326000       0.25944000
    54  C          0.31786000       0.08674000       0.75944000
    55  H          0.21710000       0.91380000       0.27800000
    56  H          0.21710000       0.08620000       0.77800000
    57  H          0.31360000       0.88130000       0.21300000
    58  H          0.31360000       0.11870000       0.71300000
    59  C          0.42427000       0.87546000       0.31834000
    60  C          0.42427000       0.12454000       0.81834000
    61  H          0.42510000       0.90590000       0.36570000
    62  H          0.42510000       0.09410000       0.86570000
    63  H          0.52580000       0.87670000       0.30090000
    64  H          0.52580000       0.12330000       0.80090000
    65  C          0.38198000       0.79136000       0.33414000
    66  C          0.38198000       0.20864000       0.83414000
    67  H          0.37490000       0.76180000       0.28690000
    68  H          0.37490000       0.23820000       0.78690000
    69  H          0.28580000       0.79030000       0.35630000
    70  H          0.28580000       0.20970000       0.85630000
    71  H          0.45790000       0.76790000       0.36930000
    72  H          0.45790000       0.23210000       0.86930000
    73  S          0.94058150       0.53562900       0.56552800
    74  S          0.94058150       0.46437100       0.06552800
    75  O          0.08494000       0.56622000       0.58412000
    76  O          0.08494000       0.43378000       0.08412000
    77  O          0.82604000       0.55012000       0.61522000
    78  O          0.82604000       0.44988000       0.11522000
    79  O          0.08104000       0.56152000       0.42072000
    80  O          0.08104000       0.43848000       0.92072000
    81  C          0.94546000       0.57233000       0.41883000
    82  C          0.94546000       0.42767000       0.91883000
    83  N          0.87085000       0.57083000       0.48463000
    84  N          0.87085000       0.42917000       0.98463000
    85  H          0.78020000       0.59010000       0.48270000
    86  H          0.78020000       0.40990000       0.98270000
    87  N          0.85855000       0.58653000       0.35663000
    88  N          0.85855000       0.41347000       0.85663000
    89  H          0.76140000       0.58730000       0.35890000
    90  H          0.76140000       0.41270000       0.85890000
    91  C          0.95306000       0.43453000       0.55233000
    92  C          0.95306000       0.56547000       0.05233000
    93  C          0.92216000       0.60093000       0.28423000
    94  C          0.92216000       0.39907000       0.78423000
    95  H          0.84810000       0.58690000       0.24250000
    96  H          0.84810000       0.41310000       0.74250000
    97  H          0.01030000       0.56720000       0.28050000
    98  H          0.01030000       0.43280000       0.78050000
    99  C          0.84137000       0.31314000       0.51444000
   100  C          0.84137000       0.68686000       0.01444000
   101  H          0.76060000       0.28510000       0.49010000
   102  H          0.76060000       0.71490000       0.99010000
   103  C          0.08017000       0.31434000       0.58123000
   104  C          0.08017000       0.68566000       0.08123000
   105  H          0.16480000       0.28760000       0.60320000
   106  H          0.16480000       0.71240000       0.10320000
   107  C          0.07566000       0.39464000       0.58373000
   108  C          0.07566000       0.60536000       0.08373000
   109  H          0.15720000       0.42270000       0.60720000
   110  H          0.15720000       0.57730000       0.10720000
   111  C          0.96367000       0.27184000       0.54724000
   112  C          0.96367000       0.72816000       0.04724000
   113  C          0.83526000       0.39314000       0.51653000
   114  C          0.83526000       0.60686000       0.01653000
   115  H          0.75140000       0.41990000       0.49370000
   116  H          0.75140000       0.58010000      -0.00630000
   117  C          0.96609000       0.18434000       0.54514000
   118  C          0.96609000       0.81566000       0.04514000
   119  H          0.88970000       0.16380000       0.57610000
   120  H          0.88970000       0.83620000       0.07610000
   121  H          0.06390000       0.16560000       0.56470000
   122  H          0.06390000       0.83440000       0.06470000
   123  H          0.94590000       0.16650000       0.49300000
   124  H          0.94590000       0.83350000      -0.00700000
   125  C          0.88039000       0.82444000       0.25885000
   126  C          0.88039000       0.17556000       0.75885000
   127  H          0.94150000       0.83110000       0.21600000
   128  H          0.94150000       0.16890000       0.71600000
   129  H          0.93740000       0.83990000       0.30540000
   130  H          0.93740000       0.16010000       0.80540000
   131  H          0.79120000       0.85710000       0.25150000
   132  H          0.79120000       0.14290000       0.75150000
   133  C          0.83488000       0.73964000       0.26435000
   134  C          0.83488000       0.26036000       0.76435000
   135  H          0.77100000       0.73340000       0.30690000
   136  H          0.77100000       0.26660000       0.80690000
   137  H          0.77570000       0.72440000       0.21750000
   138  H          0.77570000       0.27560000       0.71750000
   139  C          0.96726000       0.68624000       0.27614000
   140  C          0.96726000       0.31376000       0.77614000
   141  H          0.02800000       0.70250000       0.32200000
   142  H          0.02800000       0.29750000       0.82200000
   143  H          0.02920000       0.69120000       0.23270000
   144  H          0.02920000       0.30880000       0.73270000
   145  S          0.40731140       0.56244900       0.28378800
   146  S          0.40731140       0.43755100       0.78378800
   147  O          0.58214000       0.58462000       0.43332000
   148  O          0.58214000       0.41538000       0.93332000
   149  O          0.28294000       0.58392000       0.23382000
   150  O          0.28294000       0.41608000       0.73382000
   151  O          0.54944000       0.59702000       0.27632000
   152  O          0.54944000       0.40298000       0.77632000
   153  C          0.44586000       0.59143000       0.43343000
   154  C          0.44586000       0.40857000       0.93343000
   155  N          0.37535000       0.60793000       0.49453000
   156  N          0.37535000       0.39207000      -0.00547000
   157  H          0.27750000       0.60680000       0.49180000
   158  H          0.27750000       0.39320000       0.99180000
   159  N          0.35335000       0.58303000       0.36752000
   160  N          0.35335000       0.41697000       0.86752000
   161  H          0.25730000       0.58930000       0.37120000
   162  H          0.25730000       0.41070000       0.87120000
   163  C          0.42656000       0.46013000       0.28103000
   164  C          0.42656000       0.53987000       0.78103000
   165  C          0.45696000       0.62793000       0.56593000
   166  C          0.45696000       0.37207000       0.06593000
   167  H          0.53860000       0.59000000       0.57630000
   168  H          0.53860000       0.41000000       0.07630000
   169  H          0.38930000       0.62380000       0.60710000
   170  H          0.38930000       0.37620000       0.10710000
   171  C          0.30946000       0.41614000       0.24903000
   172  C          0.30946000       0.58386000       0.74903000
   173  H          0.22090000       0.44060000       0.22860000
   174  H          0.22090000       0.55940000       0.72860000
   175  C          0.55466000       0.42504000       0.31153000
   176  C          0.55466000       0.57496000       0.81153000
   177  H          0.63430000       0.45570000       0.33330000
   178  H          0.63430000       0.54430000       0.83330000
   179  C          0.45037000       0.29894000       0.27764000
   180  C          0.45037000       0.70106000       0.77764000
   181  C          0.32377000       0.33564000       0.24714000
   182  C          0.32377000       0.66436000       0.74714000
   183  H          0.24470000       0.30510000       0.22450000
   184  H          0.24470000       0.69490000       0.72450000
   185  C          0.46718000       0.21184000       0.27414000
   186  C          0.46718000       0.78816000       0.77414000
   187  H          0.49860000       0.19690000       0.22450000
   188  H          0.49860000       0.80310000       0.72450000
   189  H          0.37170000       0.18700000       0.28200000
   190  H          0.37170000       0.81300000       0.78200000
   191  H          0.54190000       0.19480000       0.31340000
   192  H          0.54190000       0.80520000       0.81340000
   193  C          0.56577000       0.34534000       0.31014000
   194  C          0.56577000       0.65466000       0.81014000
   195  H          0.65340000       0.32100000       0.33160000
   196  H          0.65340000       0.67900000       0.83160000
   197  C          0.52137000       0.70993000       0.56544000
   198  C          0.52137000       0.29007000       0.06544000
   199  H          0.58230000       0.71840000       0.61330000
   200  H          0.58230000       0.28160000       0.11330000
   201  H          0.58810000       0.71370000       0.52390000
   202  H          0.58810000       0.28630000       0.02390000
   203  C          0.47709000       0.85534000       0.55214000
   204  C          0.47709000       0.14466000       0.05214000
   205  H          0.54050000       0.85710000       0.50980000
   206  H          0.54050000       0.14290000       0.00980000
   207  H          0.53700000       0.86590000       0.59920000
   208  H          0.53700000       0.13410000       0.09920000
   209  H          0.39870000       0.89480000       0.54470000
   210  H          0.39870000       0.10520000       0.04470000
   211  C          0.40637000       0.77433000       0.55604000
   212  C          0.40637000       0.22567000       0.05604000
   213  H          0.34260000       0.77270000       0.59890000
   214  H          0.34260000       0.22730000       0.09890000
   215  H          0.34210000       0.76500000       0.50930000
   216  H          0.34210000       0.23500000       0.00930000
   217  S          0.38783150       0.09154800       0.49125800
   218  S          0.38783150       0.90845200       0.99125800
   219  O          0.35934000       0.04852000       0.55762000
   220  O          0.35934000       0.95148000       0.05762000
   221  O          0.67654000       0.04162000       0.57072000
   222  O          0.67654000       0.95838000       0.07072000
   223  N          0.54155000       0.06053000       0.45822000
   224  N          0.54155000       0.93947000       0.95822000
   225  H          0.54230000       0.05630000       0.40900000
   226  H          0.54230000       0.94370000       0.90900000
   227  O          0.28224000       0.09002000       0.42662000
   228  O          0.28224000       0.90998000       0.92662000
   229  N          0.78375000       0.02033000       0.46053000
   230  N          0.78375000       0.97967000       0.96053000
   231  H          0.77610000       0.03010000       0.41180000
   232  H          0.77610000       0.96990000       0.91180000
   233  C          0.67176000       0.04023000       0.50133000
   234  C          0.67176000       0.95977000       0.00133000
   235  C          0.91846000       0.98306000       0.49334000
   236  C          0.91846000       0.01694000      -0.00666000
   237  H          0.93940000       0.00100000       0.54590000
   238  H          0.93940000      -0.00100000       0.04590000
   239  H          0.00370000      -0.00240000       0.46430000
   240  H          0.00370000       0.00240000       0.96430000
   241  C          0.41866000       0.18943000       0.51773000
   242  C          0.41866000       0.81057000       0.01773000
   243  C          0.47966000       0.20893000       0.58923000
   244  C          0.47966000       0.79107000       0.08923000
   245  H          0.50640000       0.16900000       0.62470000
   246  H          0.50640000       0.83100000       0.12470000
   247  C          0.50116000       0.28614000       0.60853000
   248  C          0.50116000       0.71386000       0.10853000
   249  H          0.54150000       0.29900000       0.65780000
   250  H          0.54150000       0.70100000       0.15780000
   251  C          0.46466000       0.34563000       0.55693000
   252  C          0.46466000       0.65437000       0.05693000
   253  C          0.48727000       0.42974000       0.57664000
   254  C          0.48727000       0.57026000       0.07664000
   255  H          0.57540000       0.43530000       0.61180000
   256  H          0.57540000       0.56470000       0.11180000
   257  H          0.39990000       0.44950000       0.60020000
   258  H          0.39990000       0.55050000       0.10020000
   259  H          0.50120000       0.45960000       0.53070000
   260  H          0.50120000       0.54040000       0.03070000
   261  C          0.40507000       0.32484000       0.48504000
   262  C          0.40507000       0.67516000       0.98504000
   263  H          0.38010000       0.36450000       0.44900000
   264  H          0.38010000       0.63550000       0.94900000
   265  C          0.38146000       0.24793000       0.46533000
   266  C          0.38146000       0.75207000       0.96533000
   267  H          0.34010000       0.23480000       0.41620000
   268  H          0.34010000       0.76520000       0.91620000
   269  C         -0.00431000       0.76016000       0.50805000
   270  C         -0.00431000       0.23984000       0.00805000
   271  H          0.96210000       0.74860000       0.45550000
   272  H          0.96210000       0.25140000       0.95550000
   273  H          0.91730000       0.74620000       0.54080000
   274  H          0.91730000       0.25380000       0.04080000
   275  H          0.08550000       0.73010000       0.52250000
   276  H          0.08550000       0.26990000       0.02250000
   277  C          0.02958000       0.84686000       0.51605000
   278  C          0.02958000       0.15314000       0.01605000
   279  H          0.06080000       0.85920000       0.56920000
   280  H          0.06080000       0.14080000       0.06920000
   281  H          0.11200000       0.86090000       0.48480000
   282  H          0.11200000       0.13910000       0.98480000
   283  C          0.89698000       0.89236000       0.49175000
   284  C          0.89698000       0.10764000       0.99175000
   285  H          0.81680000       0.87890000       0.52450000
   286  H          0.81680000       0.12110000       0.02450000
   287  H          0.86330000       0.87670000       0.43960000
   288  H          0.86330000       0.12330000       0.93960000
