data_ZZZPUS06
_symmetry_space_group_name_H-M    'P1'
_symmetry_Int_Tables_number       1
loop_
_symmetry_equiv_pos_site_id
_symmetry_equiv_pos_as_xyz
1 x,y,z
_cell_length_a                   11.7352
_cell_length_b                   9.042118
_cell_length_c                   13.7323
_cell_angle_alpha                90.0
_cell_angle_beta                 103.573
_cell_angle_gamma                90.0
loop_
_atom_site_label
_atom_site_type_symbol
_atom_site_fract_x
_atom_site_fract_y
_atom_site_fract_z
     1  S          0.36468900       0.19479100       0.12048700
     2  S          0.13531100       0.69479100       0.37951300
     3  S          0.63531100       0.80520900       0.87951300
     4  S          0.86468900       0.30520900       0.62048700
     5  O          0.28942000       0.35213000       0.28992000
     6  O          0.21058000       0.85213000       0.21008000
     7  O          0.71058000       0.64787000       0.71008000
     8  O          0.78942000       0.14787000       0.78992000
     9  O          0.34173000       0.09023000       0.03980190
    10  O          0.15827000       0.59023000       0.46019810
    11  O          0.65827000       0.90977000       0.96019810
    12  O          0.84173000       0.40977000       0.53980190
    13  O          0.34403000       0.34823000       0.09842000
    14  O          0.15597000       0.84823000       0.40158000
    15  O          0.65597000       0.65177000       0.90158000
    16  O          0.84403000       0.15177000       0.59842000
    17  C          0.26523000       0.21934000       0.27853000
    18  C          0.23477000       0.71934000       0.22147000
    19  C          0.73477000       0.78066000       0.72147000
    20  C          0.76523000       0.28066000       0.77853000
    21  N          0.28283000       0.14134000       0.19522000
    22  N          0.21717000       0.64134000       0.30478000
    23  N          0.71717000       0.85866000       0.80478000
    24  N          0.78283000       0.35866000       0.69522000
    25  C          0.51114000       0.17194000       0.18713000
    26  C         -0.01114000       0.67194000       0.31287000
    27  C          0.48886000       0.82806000       0.81287000
    28  C          0.01114000       0.32806000       0.68713000
    29  N          0.22113000       0.13814000       0.34173000
    30  N          0.27887000       0.63814000       0.15827000
    31  N          0.77887000       0.86186000       0.65827000
    32  N          0.72113000       0.36186000       0.84173000
    33  C          0.66864000       0.22255000       0.32903000
    34  C          0.83136000       0.72255000       0.17097000
    35  C          0.33136000       0.77745000       0.67097000
    36  C          0.16864000       0.27745000       0.82903000
    37  H          0.69660000       0.26830000       0.39240000
    38  H          0.80340000       0.76830000       0.10760000
    39  H          0.30340000       0.73170000       0.60760000
    40  H          0.19660000       0.23170000       0.89240000
    41  C          0.58524000       0.08445000       0.14753000
    42  C          0.91476000       0.58445000       0.35247000
    43  C          0.41476000       0.91555000       0.85247000
    44  C          0.08524000       0.41555000       0.64753000
    45  H          0.55650000       0.03390000       0.08600000
    46  H          0.94350000       0.53390000       0.41400000
    47  H          0.44350000       0.96610000       0.91400000
    48  H          0.05650000       0.46610000       0.58600000
    49  C          0.20184000       0.19585000       0.43653000
    50  C          0.29816000       0.69585000       0.06347000
    51  C          0.79816000       0.80415000       0.56347000
    52  C          0.70184000       0.30415000       0.93653000
    53  H          0.12580000       0.15900000       0.44620000
    54  H          0.37420000       0.65900000       0.05380000
    55  H          0.87420000       0.84100000       0.55380000
    56  H          0.62580000       0.34100000       0.94620000
    57  H          0.19800000       0.30510000       0.43330000
    58  H          0.30200000       0.80510000       0.06670000
    59  H          0.80200000       0.69490000       0.56670000
    60  H          0.69800000       0.19490000       0.93330000
    61  C          0.74394000       0.13765000       0.28963000
    62  C          0.75606000       0.63765000       0.21037000
    63  C          0.25606000       0.86235000       0.71037000
    64  C          0.24394000       0.36235000       0.78963000
    65  C          0.55234000       0.24315000       0.27843000
    66  C          0.94766000       0.74315000       0.22157000
    67  C          0.44766000       0.75685000       0.72157000
    68  C          0.05234000       0.25685000       0.77843000
    69  H          0.50200000       0.30470000       0.30570000
    70  H         -0.00200000       0.80470000       0.19430000
    71  H          0.49800000       0.69530000       0.69430000
    72  H          0.00200000       0.19530000       0.80570000
    73  C          0.87184000       0.12057000       0.34594000
    74  C          0.62816000       0.62057000       0.15406000
    75  C          0.12816000       0.87943000       0.65406000
    76  C          0.37184000       0.37943000       0.84594000
    77  H          0.91240000       0.05570000       0.30780000
    78  H          0.58760000       0.55570000       0.19220000
    79  H          0.08760000       0.94430000       0.69220000
    80  H          0.41240000       0.44430000       0.80780000
    81  H          0.87540000       0.07720000       0.41200000
    82  H          0.62460000       0.57720000       0.08800000
    83  H          0.12460000       0.92280000       0.58800000
    84  H          0.37540000       0.42280000       0.91200000
    85  H          0.90970000       0.21780000       0.35400000
    86  H          0.59030000       0.71780000       0.14600000
    87  H          0.09030000       0.78220000       0.64600000
    88  H          0.40970000       0.28220000       0.85400000
    89  C          0.70094000       0.07036000       0.19743000
    90  C          0.79906000       0.57036000       0.30257000
    91  C          0.29906000       0.92964000       0.80257000
    92  C          0.20094000       0.42964000       0.69743000
    93  H          0.75240000       0.01360000       0.16820000
    94  H          0.74760000       0.51360000       0.33180000
    95  H          0.24760000      -0.01360000       0.83180000
    96  H          0.25240000       0.48640000       0.66820000
    97  C          0.30005000       0.14856000       0.52554000
    98  C          0.19995000       0.64856000       0.97446000
    99  C          0.69995000       0.85144000       0.47446000
   100  C          0.80005000       0.35144000       0.02554000
   101  H          0.27720000       0.17590000       0.58810000
   102  H          0.22280000       0.67590000       0.91190000
   103  H          0.72280000       0.82410000       0.41190000
   104  H          0.77720000       0.32410000       0.08810000
   105  H          0.30720000       0.03950000       0.52460000
   106  H          0.19280000       0.53950000       0.97540000
   107  H          0.69280000       0.96050000       0.47540000
   108  H          0.80720000       0.46050000       0.02460000
   109  C          0.41667000       0.21448000       0.52765000
   110  C          0.08333000       0.71448000       0.97235000
   111  C          0.58333000       0.78552000       0.47235000
   112  C          0.91667000       0.28552000       0.02765000
   113  H          0.44360000       0.18220000       0.46790000
   114  H          0.05640000       0.68220000       0.03210000
   115  H          0.55640000       0.81780000       0.53210000
   116  H          0.94360000       0.31780000       0.96790000
   117  H          0.41060000       0.32370000       0.52620000
   118  H          0.08940000       0.82370000       0.97380000
   119  H          0.58940000       0.67630000       0.47380000
   120  H          0.91060000       0.17630000       0.02620000
   121  H          0.27830000       0.05650000       0.19530000
   122  H          0.22170000       0.55650000       0.30470000
   123  H          0.72170000       0.94350000       0.80470000
   124  H          0.77830000       0.44350000       0.69530000
   125  H          0.21040000       0.03970000       0.32940000
   126  H          0.28960000       0.53970000       0.17060000
   127  H          0.78960000       0.96030000       0.67060000
   128  H          0.71040000       0.46030000       0.82940000
   129  C          0.50058000       0.16731300       0.61857000
   130  C         -0.00058000       0.66731300       0.88143000
   131  C          0.49942000       0.83268700       0.38143000
   132  C          0.00058000       0.33268700       0.11857000
   133  H          0.46730000       0.18430000       0.67660000
   134  H          0.03270000       0.68430000       0.82340000
   135  H          0.53270000       0.81570000       0.32340000
   136  H          0.96730000       0.31570000       0.17660000
   137  H          0.57320000       0.22410000       0.62610000
   138  H          0.92680000       0.72410000       0.87390000
   139  H          0.42680000       0.77590000       0.37390000
   140  H          0.07320000       0.27590000       0.12610000
   141  H          0.51740000       0.06170000       0.61360000
   142  H          0.98260000       0.56170000       0.88640000
   143  H          0.48260000       0.93830000       0.38640000
   144  H          0.01740000       0.43830000       0.11360000
