data_ZZZWGK01
_symmetry_space_group_name_H-M    'P1'
_symmetry_Int_Tables_number       1
loop_
_symmetry_equiv_pos_site_id
_symmetry_equiv_pos_as_xyz
1 x,y,z
_cell_length_a                   5.37362
_cell_length_b                   7.03943
_cell_length_c                   15.19107
_cell_angle_alpha                90.0
_cell_angle_beta                 90.0
_cell_angle_gamma                90.0
loop_
_atom_site_label
_atom_site_type_symbol
_atom_site_fract_x
_atom_site_fract_y
_atom_site_fract_z
     1  C          0.49233000       0.17362000       0.09182100
     2  C         -0.00767000       0.32638000       0.90817900
     3  C          0.50767000       0.67362000       0.40817900
     4  C          0.00767000       0.82638000       0.59182100
     5  C          0.25083000       0.17483000       0.14147110
     6  C          0.75083000       0.32517000       0.85852890
     7  C          0.74917000       0.67483000       0.35852890
     8  C          0.24917000       0.82517000       0.64147110
     9  C          0.22254000       0.00103000       0.20128120
    10  C          0.72254000       0.49897000       0.79871880
    11  C          0.77746000       0.50103000       0.29871880
    12  C          0.27746000      -0.00103000       0.70128120
    13  C          0.27004000       0.81717000       0.15156120
    14  C          0.77004000       0.68283000       0.84843880
    15  C          0.72996000       0.31717000       0.34843880
    16  C          0.22996000       0.18283000       0.65156120
    17  C          0.52734000       0.81857000       0.10946120
    18  C          0.02734000       0.68143000       0.89053880
    19  C          0.47266000       0.31857000       0.39053880
    20  C          0.97266000       0.18143000       0.60946120
    21  C          0.55703000      -0.01192000       0.04697110
    22  C          0.05703000       0.51192000       0.95302890
    23  C          0.44297000       0.48808000       0.45302890
    24  C          0.94297000       0.01192000       0.54697110
    25  O          0.62563000       0.31225180       0.08656800
    26  O          0.12563000       0.18774820       0.91343200
    27  O          0.37437000       0.81225180       0.41343200
    28  O          0.87437000       0.68774820       0.58656800
    29  H          0.24630000       0.29050000       0.17680000
    30  H          0.74630000       0.20950000       0.82320000
    31  H          0.75370000       0.79050000       0.32320000
    32  H          0.25370000       0.70950000       0.67680000
    33  H          0.11330000       0.17910000       0.09870000
    34  H          0.61330000       0.32090000       0.90130000
    35  H          0.88670000       0.67910000       0.40130000
    36  H          0.38670000       0.82090000       0.59870000
    37  H          0.34430000       0.01160000       0.24900000
    38  H          0.84430000       0.48840000       0.75100000
    39  H          0.65570000       0.51160000       0.25100000
    40  H          0.15570000      -0.01160000       0.74900000
    41  H          0.05100000      -0.00260000       0.22720000
    42  H          0.55100000       0.50260000       0.77280000
    43  H          0.94900000       0.49740000       0.27280000
    44  H          0.44900000       0.00260000       0.72720000
    45  H          0.25470000       0.71200000       0.19300000
    46  H          0.75470000       0.78800000       0.80700000
    47  H          0.74530000       0.21200000       0.30700000
    48  H          0.24530000       0.28800000       0.69300000
    49  H          0.14590000       0.79980000       0.10350000
    50  H          0.64590000       0.70020000       0.89650000
    51  H          0.85410000       0.29980000       0.39650000
    52  H          0.35410000       0.20020000       0.60350000
    53  H          0.65350000       0.82540000       0.15580000
    54  H          0.15350000       0.67460000       0.84420000
    55  H          0.34650000       0.32540000       0.34420000
    56  H          0.84650000       0.17460000       0.65580000
    57  H          0.54850000       0.70120000       0.07510000
    58  H          0.04850000       0.79880000       0.92490000
    59  H          0.45150000       0.20120000       0.42490000
    60  H          0.95150000       0.29880000       0.57510000
    61  H          0.72810000      -0.00980000       0.02430000
    62  H          0.22810000       0.50980000       0.97570000
    63  H          0.27190000       0.49020000       0.47570000
    64  H          0.77190000       0.00980000       0.52430000
    65  H          0.44600000       0.97300000      -0.00280000
    66  H          0.94600000       0.52700000       0.00280000
    67  H          0.55400000       0.47300000       0.50280000
    68  H          0.05400000       0.02700000       0.49720000
