data_ZZZWGK04
_symmetry_space_group_name_H-M    'P1'
_symmetry_Int_Tables_number       1
loop_
_symmetry_equiv_pos_site_id
_symmetry_equiv_pos_as_xyz
1 x,y,z
_cell_length_a                   5.5132
_cell_length_b                   9.8553
_cell_length_c                   10.7975
_cell_angle_alpha                90.0
_cell_angle_beta                 98.752
_cell_angle_gamma                90.0
loop_
_atom_site_label
_atom_site_type_symbol
_atom_site_fract_x
_atom_site_fract_y
_atom_site_fract_z
     1  O          0.24918000       0.20125000       0.28915000
     2  O          0.25082000       0.70125000       0.21085000
     3  O          0.75082000       0.79875000       0.71085000
     4  O          0.74918000       0.29875000       0.78915000
     5  C          0.36241200       0.29777000       0.26036000
     6  C          0.13758800       0.79777000       0.23964000
     7  C          0.63758800       0.70223000       0.73964000
     8  C          0.86241200       0.20223000       0.76036000
     9  C          0.40601200       0.31707000       0.12866000
    10  C          0.09398800       0.81707000       0.37134000
    11  C          0.59398800       0.68293000       0.87134000
    12  C          0.90601200       0.18293000       0.62866000
    13  H          0.29600000       0.38960000       0.08940000
    14  H          0.20400000       0.88960000       0.41060000
    15  H          0.70400000       0.61040000       0.91060000
    16  H          0.79600000       0.11040000       0.58940000
    17  H          0.36210000       0.23220000       0.08130000
    18  H          0.13790000       0.73220000       0.41870000
    19  H          0.63790000       0.76780000       0.91870000
    20  H          0.86210000       0.26780000       0.58130000
    21  C          0.66921100       0.35407000       0.11746000
    22  C          0.83078900       0.85407000       0.38254000
    23  C          0.33078900       0.64593000       0.88254000
    24  C          0.16921100       0.14593000       0.61746000
    25  H          0.77560000       0.27370000       0.13790000
    26  H          0.72440000       0.77370000       0.36210000
    27  H          0.22440000       0.72630000       0.86210000
    28  H          0.27560000       0.22630000       0.63790000
    29  H          0.67900000       0.38040000       0.02980000
    30  H          0.82100000       0.88040000       0.47020000
    31  H          0.32100000       0.61960000       0.97020000
    32  H          0.17900000       0.11960000       0.52980000
    33  C          0.76081300       0.46846000       0.20326000
    34  C          0.73918700       0.96846000       0.29674000
    35  C          0.23918700       0.53154000       0.79674000
    36  C          0.26081300       0.03154000       0.70326000
    37  H          0.66100000       0.55050000       0.17940000
    38  H          0.83900000       0.05050000       0.32060000
    39  H          0.33900000       0.44950000       0.82060000
    40  H          0.16100000       0.94950000       0.67940000
    41  H          0.93300000       0.48920000       0.19410000
    42  H          0.56700000      -0.01080000       0.30590000
    43  H          0.06700000       0.51080000       0.80590000
    44  H          0.43300000       0.01080000       0.69410000
    45  C          0.74711100       0.43276000       0.33835000
    46  C          0.75288900       0.93276000       0.16165000
    47  C          0.25288900       0.56724000       0.66165000
    48  C          0.24711100       0.06724000       0.83835000
    49  H          0.80880000       0.50940000       0.39350000
    50  H          0.69120000       0.00940000       0.10650000
    51  H          0.19120000       0.49060000       0.60650000
    52  H          0.30880000      -0.00940000       0.89350000
    53  H          0.85050000       0.35230000       0.36350000
    54  H          0.64950000       0.85230000       0.13650000
    55  H          0.14950000       0.64770000       0.63650000
    56  H          0.35050000       0.14770000       0.86350000
    57  C          0.48151100       0.40266000       0.35156000
    58  C          0.01848900       0.90266000       0.14844000
    59  C          0.51848900       0.59734000       0.64844000
    60  C         -0.01848900       0.09734000       0.85156000
    61  H          0.47520000       0.37050000       0.43790000
    62  H          0.02480000       0.87050000       0.06210000
    63  H          0.52480000       0.62950000       0.56210000
    64  H         -0.02480000       0.12950000       0.93790000
    65  H          0.38570000       0.48770000       0.33910000
    66  H          0.11430000      -0.01230000       0.16090000
    67  H          0.61430000       0.51230000       0.66090000
    68  H          0.88570000       0.01230000       0.83910000
