data_ZZZWGK03
_symmetry_space_group_name_H-M    'P1'
_symmetry_Int_Tables_number       1
loop_
_symmetry_equiv_pos_site_id
_symmetry_equiv_pos_as_xyz
1 x,y,z
_cell_length_a                   10.4823
_cell_length_b                   8.6253
_cell_length_c                   12.9935
_cell_angle_alpha                90.0
_cell_angle_beta                 90.0
_cell_angle_gamma                90.0
loop_
_atom_site_label
_atom_site_type_symbol
_atom_site_fract_x
_atom_site_fract_y
_atom_site_fract_z
     1  O          0.78452140       0.46091170       0.38418140
     2  O          0.71547860       0.53908830       0.88418140
     3  O          0.21547860       0.96091170       0.11581860
     4  O          0.28452140       0.03908830       0.61581860
     5  O          0.21547860       0.53908830       0.61581860
     6  O          0.28452140       0.46091170       0.11581860
     7  O          0.78452140       0.03908830       0.88418140
     8  O          0.71547860       0.96091170       0.38418140
     9  C          0.85115170       0.34532000       0.38202000
    10  C          0.64884830       0.65468000       0.88202000
    11  C          0.14884830       0.84532000       0.11798000
    12  C          0.35115170       0.15468000       0.61798000
    13  C          0.14884830       0.65468000       0.61798000
    14  C          0.35115170       0.34532000       0.11798000
    15  C          0.85115170       0.15468000       0.88202000
    16  C          0.64884830       0.84532000       0.38202000
    17  C          0.90442000       0.27274000       0.47802000
    18  C          0.59558000       0.72726000       0.97802000
    19  C          0.09558000       0.77274000       0.02198000
    20  C          0.40442000       0.22726000       0.52198000
    21  C          0.09558000       0.72726000       0.52198000
    22  C          0.40442000       0.27274000       0.02198000
    23  C          0.90442000       0.22726000       0.97802000
    24  C          0.59558000       0.77274000       0.47802000
    25  C          0.04613000       0.23754000       0.46772000
    26  C          0.45387000       0.76246000       0.96772000
    27  C          0.95387000       0.73754000       0.03228000
    28  C          0.54613000       0.26246000       0.53228000
    29  C          0.95387000       0.76246000       0.53228000
    30  C          0.54613000       0.23754000       0.03228000
    31  C          0.04613000       0.26246000       0.96772000
    32  C          0.45387000       0.73754000       0.46772000
    33  C          0.07422000       0.14623000       0.37082000
    34  C          0.42578000       0.85377000       0.87082000
    35  C          0.92578000       0.64623000       0.12918000
    36  C          0.57422000       0.35377000       0.62918000
    37  C          0.92578000       0.85377000       0.62918000
    38  C          0.57422000       0.14623000       0.12918000
    39  C          0.07422000       0.35377000       0.87082000
    40  C          0.42578000       0.64623000       0.37082000
    41  C          0.02702000       0.23164000       0.27662000
    42  C          0.47298000       0.76836000       0.77662000
    43  C          0.97298000       0.73164000       0.22338000
    44  C          0.52702000       0.26836000       0.72338000
    45  C          0.97298000       0.76836000       0.72338000
    46  C          0.52702000       0.23164000       0.22338000
    47  C          0.02702000       0.26836000       0.77662000
    48  C          0.47298000       0.73164000       0.27662000
    49  C          0.88492000       0.26513000       0.28302000
    50  C          0.61508000       0.73487000       0.78302000
    51  C          0.11508000       0.76513000       0.21698000
    52  C          0.38492000       0.23487000       0.71698000
    53  C          0.11508000       0.73487000       0.71698000
    54  C          0.38492000       0.26513000       0.21698000
    55  C          0.88492000       0.23487000       0.78302000
    56  C          0.61508000       0.76513000       0.28302000
    57  H          0.88520000       0.34030000       0.53171800
    58  H          0.61480000       0.65970000       0.03171800
    59  H          0.11480000       0.84030000       0.96828200
    60  H          0.38520000       0.15970000       0.46828200
    61  H          0.11480000       0.65970000       0.46828200
    62  H          0.38520000       0.34030000       0.96828200
    63  H          0.88520000       0.15970000       0.03171800
    64  H          0.61480000       0.84030000       0.53171800
    65  H          0.85320000       0.17030000       0.48521800
    66  H          0.64680000       0.82970000       0.98521800
    67  H          0.14680000       0.67030000       0.01478200
    68  H          0.35320000       0.32970000       0.51478200
    69  H          0.14680000       0.82970000       0.51478200
    70  H          0.35320000       0.17030000       0.01478200
    71  H          0.85320000       0.32970000       0.98521800
    72  H          0.64680000       0.67030000       0.48521800
    73  H          0.09520000       0.33730000       0.45931600
    74  H          0.40480000       0.66270000       0.95931600
    75  H          0.90480000       0.83730000       0.04068400
    76  H          0.59520000       0.16270000       0.54068400
    77  H          0.90480000       0.66270000       0.54068400
    78  H          0.59520000       0.33730000       0.04068400
    79  H          0.09520000       0.16270000       0.95931600
    80  H          0.40480000       0.83730000       0.45931600
    81  H          0.08120000       0.18930000       0.52781900
    82  H          0.41880000       0.81070000       0.02781900
    83  H          0.91880000       0.68930000       0.97218100
    84  H          0.58120000       0.31070000       0.47218100
    85  H          0.91880000       0.81070000       0.47218100
    86  H          0.58120000       0.18930000       0.97218100
    87  H          0.08120000       0.31070000       0.02781900
    88  H          0.41880000       0.68930000       0.52781900
    89  H          0.03171700       0.05520000       0.37221600
    90  H          0.46828300       0.94480000       0.87221600
    91  H          0.96828300       0.55520000       0.12778400
    92  H          0.53171700       0.44480000       0.62778400
    93  H          0.96828300       0.94480000       0.62778400
    94  H          0.53171700       0.05520000       0.12778400
    95  H          0.03171700       0.44480000       0.87221600
    96  H          0.46828300       0.55520000       0.37221600
    97  H          0.17520000       0.12320000       0.36961600
    98  H          0.32480000       0.87680000       0.86961600
    99  H          0.82480000       0.62320000       0.13038400
   100  H          0.67520000       0.37680000       0.63038400
   101  H          0.82480000       0.87680000       0.63038400
   102  H          0.67520000       0.12320000       0.13038400
   103  H          0.17520000       0.37680000       0.86961600
   104  H          0.32480000       0.62320000       0.36961600
   105  H          0.04071900       0.17330000       0.22101900
   106  H          0.45928100       0.82670000       0.72101900
   107  H          0.95928100       0.67330000       0.27898100
   108  H          0.54071900       0.32670000       0.77898100
   109  H          0.95928100       0.82670000       0.77898100
   110  H          0.54071900       0.17330000       0.27898100
   111  H          0.04071900       0.32670000       0.72101900
   112  H          0.45928100       0.67330000       0.22101900
   113  H          0.08020000       0.33130000       0.26571900
   114  H          0.41980000       0.66870000       0.76571900
   115  H          0.91980000       0.83130000       0.23428100
   116  H          0.58020000       0.16870000       0.73428100
   117  H          0.91980000       0.66870000       0.73428100
   118  H          0.58020000       0.33130000       0.23428100
   119  H          0.08020000       0.16870000       0.76571900
   120  H          0.41980000       0.83130000       0.26571900
   121  H          0.84851900       0.32730000       0.22151900
   122  H          0.65148100       0.67270000       0.72151900
   123  H          0.15148100       0.82730000       0.27848100
   124  H          0.34851900       0.17270000       0.77848100
   125  H          0.15148100       0.67270000       0.77848100
   126  H          0.34851900       0.32730000       0.27848100
   127  H          0.84851900       0.17270000       0.72151900
   128  H          0.65148100       0.82730000       0.22151900
   129  H          0.83551900       0.16630000       0.28651700
   130  H          0.66448100       0.83370000       0.78651700
   131  H          0.16448100       0.66630000       0.21348300
   132  H          0.33551900       0.33370000       0.71348300
   133  H          0.16448100       0.83370000       0.71348300
   134  H          0.33551900       0.16630000       0.21348300
   135  H          0.83551900       0.33370000       0.78651700
   136  H          0.66448100       0.66630000       0.28651700
