data_image0
_chemical_formula_structural       H60C56N8O24Cl4
_chemical_formula_sum              "H60 C56 N8 O24 Cl4"
_cell_length_a       30.79208749830899
_cell_length_b       4.852517022898812
_cell_length_c       9.903459111389203
_cell_angle_alpha    90.0
_cell_angle_beta     90.0
_cell_angle_gamma    90.0

_space_group_name_H-M_alt    "P 1"
_space_group_IT_number       1

loop_
  _space_group_symop_operation_xyz
  'x, y, z'

loop_
  _atom_site_type_symbol
  _atom_site_label
  _atom_site_symmetry_multiplicity
  _atom_site_fract_x
  _atom_site_fract_y
  _atom_site_fract_z
  _atom_site_occupancy
  H   H1        1.0  0.42577951919368884  0.6132052079278297  0.5351800598545134  1.0000
  H   H2        1.0  0.5742204808612281  0.3867947935355731  0.03518006042952478  1.0000
  H   H3        1.0  0.9257795192211473  0.3867947935355731  0.5351800598545134  1.0000
  H   H4        1.0  0.07422048083376963  0.6132052079278297  0.03518006042952478  1.0000
  H   H5        1.0  0.625734083831053  0.21807593152302612  0.49327548132974924  1.0000
  H   H6        1.0  0.3742659162238639  0.7819240678795906  0.9932754817644861  1.0000
  H   H7        1.0  0.12573408380359458  0.7819240678795906  0.49327548132974924  1.0000
  H   H8        1.0  0.8742659162513223  0.21807593152302612  0.9932754817644861  1.0000
  H   H9        1.0  0.7994840321024657  0.006195149828045615  0.12203352146020731  1.0000
  H   H10       1.0  0.20051596762769247  0.9938048495745712  0.6220335218949441  1.0000
  H   H11       1.0  0.29948403239976595  0.9938048495745712  0.12203352146020731  1.0000
  H   H12       1.0  0.700515967655151  0.006195149828045615  0.6220335218949441  1.0000
  H   H13       1.0  0.601023194709236  0.4827733378255169  0.7068684558862197  1.0000
  H   H14       1.0  0.39897680534568086  0.5172266615770998  0.20686845646123114  1.0000
  H   H15       1.0  0.10102319468177762  0.5172266615770998  0.7068684558862197  1.0000
  H   H16       1.0  0.8989768053731393  0.4827733378255169  0.20686845646123114  1.0000
  H   H17       1.0  0.6068837655461404  0.7194503189840329  0.8437610764091744  1.0000
  H   H18       1.0  0.3931162345087764  0.2805496804185839  0.34376107597443756  1.0000
  H   H19       1.0  0.10688376551868206  0.2805496804185839  0.8437610764091744  1.0000
  H   H20       1.0  0.8931162345362348  0.7194503189840329  0.34376107597443756  1.0000
  H   H21       1.0  0.5553278065652113  0.03978320716630396  0.8880402868413855  1.0000
  H   H22       1.0  0.44467219348970555  0.9602167922363128  0.38804028640664856  1.0000
  H   H23       1.0  0.05532780653775291  0.9602167922363128  0.8880402868413855  1.0000
  H   H24       1.0  0.9446721935171639  0.03978320716630396  0.38804028640664856  1.0000
  H   H25       1.0  0.47477990768904044  0.16805846247455924  0.8776109773609011  1.0000
  H   H26       1.0  0.5252200923658765  0.8319415389888437  0.3776109779359125  1.0000
  H   H27       1.0  0.9747799077164989  0.8319415389888437  0.8776109773609011  1.0000
  H   H28       1.0  0.025220092338418022  0.16805846247455924  0.3776109779359125  1.0000
  H   H29       1.0  0.4273029339346536  0.927563122140511  0.7136673883847208  1.0000
  H   H30       1.0  0.5726970661202633  0.07243687932289192  0.21366738794998394  1.0000
  H   H31       1.0  0.9273029336373533  0.07243687932289192  0.7136673883847208  1.0000
  H   H32       1.0  0.07269706609280488  0.927563122140511  0.21366738794998394  1.0000
  H   H33       1.0  0.5398822814761404  0.46216513603496234  0.5824410345034353  1.0000
  H   H34       1.0  0.46011771825401776  0.5378348633676544  0.08244103507844672  1.0000
  H   H35       1.0  0.0398822817734407  0.5378348633676544  0.5824410345034353  1.0000
  H   H36       1.0  0.9601177182814762  0.46216513603496234  0.08244103507844672  1.0000
  H   H37       1.0  0.6450895468224053  0.660827802327705  0.16135537311021872  1.0000
  H   H38       1.0  0.35491045323251164  0.33917219707491175  0.6613553735449555  1.0000
  H   H39       1.0  0.14508954679494684  0.33917219707491175  0.16135537311021872  1.0000
  H   H40       1.0  0.8549104532599701  0.660827802327705  0.6613553735449555  1.0000
  H   H41       1.0  0.6560470682966648  0.9031106453248569  0.2921656531779352  1.0000
  H   H42       1.0  0.34395293175825203  0.096889356138546  0.7921656526029238  1.0000
  H   H43       1.0  0.1560470682692064  0.096889356138546  0.2921656531779352  1.0000
  H   H44       1.0  0.8439529317857106  0.9031106453248569  0.7921656526029238  1.0000
  H   H45       1.0  0.7178145002742613  0.8843202774457289  0.41626774580803205  1.0000
  H   H46       1.0  0.2821854997806556  0.11567972195688789  0.9162677452330207  1.0000
  H   H47       1.0  0.21781450024680288  0.11567972195688789  0.41626774580803205  1.0000
  H   H48       1.0  0.782185499808114  0.8843202774457289  0.9162677452330207  1.0000
  H   H49       1.0  0.7948400082113329  0.7190021412672443  0.43821308203404424  1.0000
  H   H50       1.0  0.20515999184358408  0.28099785813537237  0.938213082468781  1.0000
  H   H51       1.0  0.29484000818387435  0.28099785813537237  0.43821308203404424  1.0000
  H   H52       1.0  0.7051599918710425  0.7190021412672443  0.938213082468781  1.0000
  H   H53       1.0  0.8200243046654978  0.3248199197575216  0.29771656315612444  1.0000
  H   H54       1.0  0.17997569538941913  0.6751800796450951  0.7977165625811131  1.0000
  H   H55       1.0  0.3200243046380393  0.6751800796450951  0.29771656315612444  1.0000
  H   H56       1.0  0.6799756950921187  0.3248199197575216  0.7977165625811131  1.0000
  H   H57       1.0  0.6909924642546067  0.3011320255249872  0.11908894929890423  1.0000
  H   H58       1.0  0.30900753580031015  0.6988679759384158  0.619088949733641  1.0000
  H   H59       1.0  0.19099246422714827  0.6988679759384158  0.11908894929890423  1.0000
  H   H60       1.0  0.8090075358277686  0.3011320255249872  0.619088949733641  1.0000
  C   C1        1.0  0.6209394043534727  0.8925111915244301  0.6500772465043186  1.0000
  C   C2        1.0  0.3790605957014442  0.10748880787818652  0.15007724707933007  1.0000
  C   C3        1.0  0.12093940432601424  0.10748880787818652  0.6500772465043186  1.0000
  C   C4        1.0  0.8790605957289027  0.8925111915244301  0.15007724707933007  1.0000
  C   C5        1.0  0.5952100000042707  0.6951779116036587  0.7396868101949909  1.0000
  C   C6        1.0  0.40479000005064625  0.3048220898597442  0.2396868107700024  1.0000
  C   C7        1.0  0.09520999997681225  0.3048220898597442  0.7396868101949909  1.0000
  C   C8        1.0  0.904789999753346  0.6951779116036587  0.2396868107700024  1.0000
  C   C9        1.0  0.5320611160545616  0.9443203657763971  0.8197553439346904  1.0000
  C   C10       1.0  0.4679388840003552  0.05567963362621965  0.31975534450970183  1.0000
  C   C11       1.0  0.032061116027103244  0.05567963362621965  0.8197553439346904  1.0000
  C   C12       1.0  0.9679388837030549  0.9443203657763971  0.31975534450970183  1.0000
  C   C13       1.0  0.4883737298039908  0.010205495367930967  0.8123333513588369  1.0000
  C   C14       1.0  0.5116262702509261  0.989794506095472  0.3123333519338482  1.0000
  C   C15       1.0  0.9883737298314492  0.989794506095472  0.8123333513588369  1.0000
  C   C16       1.0  0.01162627022346764  0.010205495367930967  0.3123333519338482  1.0000
  C   C17       1.0  0.46159736558232906  0.8752092656159158  0.720958793255263  1.0000
  C   C18       1.0  0.5384026344725878  0.12479073378670089  0.22095879282052625  1.0000
  C   C19       1.0  0.9615973656097875  0.12479073378670089  0.720958793255263  1.0000
  C   C20       1.0  0.03840263444512942  0.8752092656159158  0.22095879282052625  1.0000
  C   C21       1.0  0.4791948548733606  0.6711185421158097  0.6361548272314976  1.0000
  C   C22       1.0  0.5208051451815563  0.32888145728680707  0.13615482679676086  1.0000
  C   C23       1.0  0.979194854900819  0.32888145728680707  0.6361548272314976  1.0000
  C   C24       1.0  0.020805145154097836  0.6711185421158097  0.13615482679676086  1.0000
  C   C25       1.0  0.5235486662242474  0.6122975923585868  0.6464054718656794  1.0000
  C   C26       1.0  0.4764513338306694  0.38770240704403  0.14640547143094257  1.0000
  C   C27       1.0  0.023548666196789057  0.38770240704403  0.6464054718656794  1.0000
  C   C28       1.0  0.9764513338581278  0.6122975923585868  0.14640547143094257  1.0000
  C   C29       1.0  0.628200300517537  0.5247142272731177  0.36096325635241083  1.0000
  C   C30       1.0  0.37179969953738  0.47528577212949896  0.8609632567871477  1.0000
  C   C31       1.0  0.1282003004900784  0.47528577212949896  0.36096325635241083  1.0000
  C   C32       1.0  0.8717996992400797  0.5247142272731177  0.8609632567871477  1.0000
  C   C33       1.0  0.6576062207900655  0.6846375467252589  0.2645444910240553  1.0000
  C   C34       1.0  0.34239377926485143  0.31536245267735785  0.7645444904490439  1.0000
  C   C35       1.0  0.15760622076260705  0.31536245267735785  0.2645444910240553  1.0000
  C   C36       1.0  0.8423937792923099  0.6846375467252589  0.7645444904490439  1.0000
  C   C37       1.0  0.7305854967200721  0.7148818177515  0.356999257555783  1.0000
  C   C38       1.0  0.2694145033348448  0.2851181816511168  0.8569992579905198  1.0000
  C   C39       1.0  0.2305854966926137  0.2851181816511168  0.356999257555783  1.0000
  C   C40       1.0  0.7694145030375444  0.7148818177515  0.8569992579905198  1.0000
  C   C41       1.0  0.7727898967975715  0.6189834710163846  0.36765309666525753  1.0000
  C   C42       1.0  0.22721010325734536  0.3810165304470183  0.8676530960902462  1.0000
  C   C43       1.0  0.2727898967701131  0.3810165304470183  0.36765309666525753  1.0000
  C   C44       1.0  0.7272101032848037  0.6189834710163846  0.8676530960902462  1.0000
  C   C45       1.0  0.7870179672401506  0.4026697919408299  0.2870630108151384  1.0000
  C   C46       1.0  0.2129820324900075  0.5973302074617869  0.7870630112498752  1.0000
  C   C47       1.0  0.28701796753745096  0.5973302074617869  0.2870630108151384  1.0000
  C   C48       1.0  0.712982032517466  0.4026697919408299  0.7870630112498752  1.0000
  C   C49       1.0  0.758189524217288  0.28551651925423666  0.19304588613905227  1.0000
  C   C50       1.0  0.24181047583762882  0.7144834801483801  0.6930458865737891  1.0000
  C   C51       1.0  0.2581895241898296  0.7144834801483801  0.19304588613905227  1.0000
  C   C52       1.0  0.7418104758650872  0.28551651925423666  0.6930458865737891  1.0000
  C   C53       1.0  0.7156517794128174  0.38609873003202205  0.18696660219161196  1.0000
  C   C54       1.0  0.28434822064209947  0.6139012714313808  0.6869666026263488  1.0000
  C   C55       1.0  0.21565177938535895  0.6139012714313808  0.18696660219161196  1.0000
  C   C56       1.0  0.784348220669558  0.38609873003202205  0.6869666026263488  1.0000
  N   N1        1.0  0.5483477533287492  0.7485325580228762  0.737028584447411  1.0000
  N   N2        1.0  0.45165224640140905  0.25146744137974053  0.23702858401267426  1.0000
  N   N3        1.0  0.04834775330129068  0.25146744137974053  0.737028584447411  1.0000
  N   N4        1.0  0.9516522464288675  0.7485325580228762  0.23702858401267426  1.0000
  N   N5        1.0  0.7031547604945277  0.5950547388858098  0.26800879774902014  1.0000
  N   N6        1.0  0.2968452395603892  0.40494526051680696  0.768008798183757  1.0000
  N   N7        1.0  0.2031547604670692  0.40494526051680696  0.26800879774902014  1.0000
  N   N8        1.0  0.7968452395878477  0.5950547388858098  0.768008798183757  1.0000
  O   O1        1.0  0.6604717439542499  0.8298920314955018  0.636564199346271  1.0000
  O   O2        1.0  0.33952825610066695  0.1701079679071149  0.1365641999212823  1.0000
  O   O3        1.0  0.16047174392679153  0.1701079679071149  0.636564199346271  1.0000
  O   O4        1.0  0.8395282561281253  0.8298920314955018  0.1365641999212823  1.0000
  O   O5        1.0  0.601405994673696  0.09804790333651989  0.5983184737124455  1.0000
  O   O6        1.0  0.39859400538122086  0.9019520960660969  0.09831847428745688  1.0000
  O   O7        1.0  0.10140599464623755  0.9019520960660969  0.5983184737124455  1.0000
  O   O8        1.0  0.8985940054086794  0.09804790333651989  0.09831847428745688  1.0000
  O   O9        1.0  0.4560602171181542  0.5294664929305443  0.5445955770946225  1.0000
  O   O10       1.0  0.5439397829367627  0.4705335064720725  0.04459557665988563  1.0000
  O   O11       1.0  0.9560602168208538  0.4705335064720725  0.5445955770946225  1.0000
  O   O12       1.0  0.043939782909304295  0.5294664929305443  0.04459557665988563  1.0000
  O   O13       1.0  0.5909919352171031  0.607301494480806  0.3811335784341445  1.0000
  O   O14       1.0  0.40900806483781377  0.3926985049218108  0.881133577859133  1.0000
  O   O15       1.0  0.09099193518964468  0.3926985049218108  0.3811335784341445  1.0000
  O   O16       1.0  0.9090080648652722  0.607301494480806  0.881133577859133  1.0000
  O   O17       1.0  0.6461486653378937  0.3043498689506393  0.4149501122566406  1.0000
  O   O18       1.0  0.3538513347170232  0.6956501304519774  0.9149501116816292  1.0000
  O   O19       1.0  0.14614866531043527  0.6956501304519774  0.4149501122566406  1.0000
  O   O20       1.0  0.8538513347444816  0.3043498689506393  0.9149501116816292  1.0000
  O   O21       1.0  0.7684078028584252  0.08130162720466291  0.10850363776069212  1.0000
  O   O22       1.0  0.2315921971964916  0.9186983742587399  0.608503638195429  1.0000
  O   O23       1.0  0.2684078028309669  0.9186983742587399  0.10850363776069212  1.0000
  O   O24       1.0  0.73159219722395  0.08130162720466291  0.608503638195429  1.0000
  Cl  Cl1       1.0  0.3727621860853163  0.8128958664927192  0.497403942864263  1.0000
  Cl  Cl2       1.0  0.6272378139696005  0.18710413290989758  0.9974039422892517  1.0000
  Cl  Cl3       1.0  0.8727621861127748  0.18710413290989758  0.497403942864263  1.0000
  Cl  Cl4       1.0  0.12723781394214212  0.8128958664927192  0.9974039422892517  1.0000
