data_image0
_chemical_formula_structural       H52C76N8O8F16S4Cl4I8
_chemical_formula_sum              "H52 C76 N8 O8 F16 S4 Cl4 I8"
_cell_length_a       15.211537367848704
_cell_length_b       4.8887007032838845
_cell_length_c       29.142101766503867
_cell_angle_alpha    90.0
_cell_angle_beta     97.35743823866267
_cell_angle_gamma    90.0

_space_group_name_H-M_alt    "P 1"
_space_group_IT_number       1

loop_
  _space_group_symop_operation_xyz
  'x, y, z'

loop_
  _atom_site_type_symbol
  _atom_site_label
  _atom_site_symmetry_multiplicity
  _atom_site_fract_x
  _atom_site_fract_y
  _atom_site_fract_z
  _atom_site_occupancy
  H   H1        1.0  0.9952597435522978  0.23791241693702445  0.5203336400227512  1.0000
  H   H2        1.0  0.5047402562930268  0.7379124166011597  0.9796663597102697  1.0000
  H   H3        1.0  0.004740256563618815  0.7620875844367794  0.47966635979886724  1.0000
  H   H4        1.0  0.49525974382288995  0.2620875847726441  0.020333640111348757  1.0000
  H   H5        1.0  0.052381094129125734  0.8616890163004483  0.5734526524742368  1.0000
  H   H6        1.0  0.44761890560502654  0.36168901663631303  0.9265473472405101  1.0000
  H   H7        1.0  0.9476189053296902  0.13831098302782224  0.42654734734856803  1.0000
  H   H8        1.0  0.5523810945108901  0.6383109826919575  0.07345265258110822  1.0000
  H   H9        1.0  0.5023587591054653  0.5733347263654809  0.6120210638997847  1.0000
  H   H10       1.0  0.9976412408269971  0.07333472670134566  0.887978936179229  1.0000
  H   H11       1.0  0.4976412410975892  0.4266652750083229  0.3879789362678267  1.0000
  H   H12       1.0  0.002358758718956661  0.9266652746724581  0.11202106398956861  1.0000
  H   H13       1.0  0.5868496357013295  0.6659501527293533  0.6577391940360325  1.0000
  H   H14       1.0  0.913150364143995  0.16595015101968483  0.8422608056969885  1.0000
  H   H15       1.0  0.4131503644145871  0.3340498486444505  0.34226080578558593  1.0000
  H   H16       1.0  0.08684963597192165  0.8340498483085856  0.1577391941246301  1.0000
  H   H17       1.0  0.5010290932795188  0.8956874036200798  0.6401935011127637  1.0000
  H   H18       1.0  0.9989709066529436  0.39568740395594443  0.85980649896625  1.0000
  H   H19       1.0  0.49897090617929696  0.10431259570819082  0.35980649871004117  1.0000
  H   H20       1.0  0.001029093550110976  0.6043125974178594  0.14019350120136126  1.0000
  H   H21       1.0  0.827412261697379  0.6302543123432199  0.6889735227370907  1.0000
  H   H22       1.0  0.6725877382350836  0.13025431267908463  0.8110264773419231  1.0000
  H   H23       1.0  0.1725877385056756  0.36974568698505067  0.3110264774305207  1.0000
  H   H24       1.0  0.32741226196797113  0.8697456886947191  0.18897352282568816  1.0000
  H   H25       1.0  0.7213426116213805  0.5857820889048003  0.7088297198349406  1.0000
  H   H26       1.0  0.7786573883110819  0.08578208924066502  0.7911702802440732  1.0000
  H   H27       1.0  0.2786573885816741  0.4142179104234703  0.2911702803326708  1.0000
  H   H28       1.0  0.22134261180483467  0.9142179100876056  0.20882971957754531  1.0000
  H   H29       1.0  0.802548769448386  0.317681845189821  0.7166099403409696  1.0000
  H   H30       1.0  0.6974512304840764  0.8176818448539562  0.7833900597380441  1.0000
  H   H31       1.0  0.1974512300975677  0.6823181561839828  0.28339005982782817  1.0000
  H   H32       1.0  0.3025487696318402  0.18231815651984754  0.21660994008357431  1.0000
  H   H33       1.0  0.9503908630554929  0.6269014521468512  0.6214781963664322  1.0000
  H   H34       1.0  0.5496091375340703  0.12690145248271598  0.8785218037113951  1.0000
  H   H35       1.0  0.04960913714756162  0.37309854718141927  0.3785218038011791  1.0000
  H   H36       1.0  0.45039086266898426  0.873098548891088  0.12147819645621617  1.0000
  H   H37       1.0  0.7929393155594278  0.7715936235299035  0.6154933122192203  1.0000
  H   H38       1.0  0.7070606843730347  0.27159362182023494  0.8845066878597934  1.0000
  H   H39       1.0  0.20706068455648885  0.2284063778439003  0.3845066876023982  1.0000
  H   H40       1.0  0.2929393151729191  0.7284063775080355  0.11549331230900425  1.0000
  H   H41       1.0  0.6766521743586272  0.17830285036972587  0.4881236520487078  1.0000
  H   H42       1.0  0.8233478261390538  0.6783028500338611  0.011876347879782029  1.0000
  H   H43       1.0  0.32334782575728943  0.821697151004078  0.5118763477729107  1.0000
  H   H44       1.0  0.17665217397686286  0.3216971492944094  0.9881236519418364  1.0000
  H   H45       1.0  0.7067267669361701  0.39495898750827607  0.5617529712552148  1.0000
  H   H46       1.0  0.7932732329091545  0.8949589871724113  0.938247028477806  1.0000
  H   H47       1.0  0.29327323252264575  0.6050410118199945  0.43824702856759  1.0000
  H   H48       1.0  0.20672676720676217  0.10504101215585923  0.06175297134381238  1.0000
  H   H49       1.0  0.5354382713753948  0.5918165593685338  0.5433663468488927  1.0000
  H   H50       1.0  0.9645617285570678  0.09181655970439856  0.956633653230121  1.0000
  H   H51       1.0  0.4645617287405219  0.4081834399597367  0.45663365297272573  1.0000
  H   H52       1.0  0.03543827098888604  0.9081834396238719  0.043366346938676734  1.0000
  C   C1        1.0  0.44283152291129707  0.6354583719787198  0.816948775705898  1.0000
  C   C2        1.0  0.05716847690999329  0.13545837026905133  0.6830512243548419  1.0000
  C   C3        1.0  0.5571684772917576  0.36454162939508394  0.18305122446171326  1.0000
  C   C4        1.0  0.9428315225488226  0.8645416290592193  0.316948775467963  1.0000
  C   C5        1.0  0.3815183200684378  0.6851676781419629  0.8476537648443127  1.0000
  C   C6        1.0  0.11848167975285259  0.1851676784778276  0.6523462352164274  1.0000
  C   C7        1.0  0.6184816794775161  0.31483232118630766  0.15234623532448513  1.0000
  C   C8        1.0  0.8815183203630641  0.8148323208504429  0.3476537646051911  1.0000
  C   C9        1.0  0.30510334951491647  0.527185051085002  0.8471717728289577  1.0000
  C   C10       1.0  0.1948966503063739  0.02718505142086678  0.6528282272317824  1.0000
  C   C11       1.0  0.6948966506010001  0.4728149482432685  0.1528282269926608  1.0000
  C   C12       1.0  0.8051033498966808  0.9728149479074037  0.34717177293582907  1.0000
  C   C13       1.0  0.29150157953324557  0.3183221584734502  0.8145164105095802  1.0000
  C   C14       1.0  0.2084984202880448  0.8183221581375855  0.6854835895511597  1.0000
  C   C15       1.0  0.7084984206698092  0.6816778429003536  0.1854835896580311  1.0000
  C   C16       1.0  0.791501579257909  0.18167784119068509  0.3145164106176379  1.0000
  C   C17       1.0  0.42887083204988424  0.4275060239617695  0.7840645413664445  1.0000
  C   C18       1.0  0.07112916777140613  0.927506023625905  0.7159354586942955  1.0000
  C   C19       1.0  0.5711291681531704  0.5724939753665009  0.21593545880116682  1.0000
  C   C20       1.0  0.9288708317745477  0.0724939757023657  0.2840645414745023  1.0000
  C   C21       1.0  0.3519698059761167  0.2710598071814605  0.783331168272165  1.0000
  C   C22       1.0  0.14803019450227448  0.7710598068455957  0.7166688317873887  1.0000
  C   C23       1.0  0.648030194226938  0.7289401941923433  0.21666883189544647  1.0000
  C   C24       1.0  0.8519698056136422  0.22894019452820805  0.2833311680342298  1.0000
  C   C25       1.0  0.6803166475710781  0.18201496144001694  0.6469067220632551  1.0000
  C   C26       1.0  0.8196833522742464  0.6820149611041523  0.8530932776697657  1.0000
  C   C27       1.0  0.3196833525448386  0.8179850399337869  0.35309327775836336  1.0000
  C   C28       1.0  0.18031664784167017  0.31798503822411833  0.1469067221518527  1.0000
  C   C29       1.0  0.6584360951512227  0.06822928631649365  0.600533248581308  1.0000
  C   C30       1.0  0.8415639047812398  0.5682292880261621  0.8994667514977058  1.0000
  C   C31       1.0  0.3415639049646939  0.9317707130117769  0.39946675124031056  1.0000
  C   C32       1.0  0.158436094764714  0.4317707133476416  0.10053324867109191  1.0000
  C   C33       1.0  0.7075750786046592  0.17026651466735618  0.5617456412376816  1.0000
  C   C34       1.0  0.7924249213278033  0.6702665143314914  0.9382543588413322  1.0000
  C   C35       1.0  0.29242492151125743  0.8297334867064478  0.43825435858393696  1.0000
  C   C36       1.0  0.20757507887525128  0.32973348704231237  0.061745641326279084  1.0000
  C   C37       1.0  0.8041527786990994  0.08222985091518625  0.5648909872119393  1.0000
  C   C38       1.0  0.6958472212333631  0.5822298505793215  0.9351090128670745  1.0000
  C   C39       1.0  0.19584722150395517  0.9177701484130844  0.43510901295567206  1.0000
  C   C40       1.0  0.30415277831259074  0.41777014874894897  0.06489098730172323  1.0000
  C   C41       1.0  0.8623072742833137  0.2074871160180938  0.5376386307232707  1.0000
  C   C42       1.0  0.637692725562011  0.707487115682229  0.9623613690097502  1.0000
  C   C43       1.0  0.13769272583260295  0.7925128833101768  0.46236136909834785  1.0000
  C   C44       1.0  0.36230727455390577  0.2925128836460415  0.037638630811868225  1.0000
  C   C45       1.0  0.951388596147666  0.1333413885538385  0.5412860853280742  1.0000
  C   C46       1.0  0.5486114037847966  0.6333413882179738  0.9587139147509396  1.0000
  C   C47       1.0  0.04861140405538857  0.8666586107744321  0.45871391483953705  1.0000
  C   C48       1.0  0.45138859633112016  0.36665861111029674  0.041286085070678956  1.0000
  C   C49       1.0  0.9830977849932638  0.9234478635535008  0.571374549203973  1.0000
  C   C50       1.0  0.5169022149391985  0.42344786388936556  0.9286254508750406  1.0000
  C   C51       1.0  0.016902215209790714  0.07655213577476969  0.4286254509636382  1.0000
  C   C52       1.0  0.4830977845196172  0.576552135438905  0.0713745489477643  1.0000
  C   C53       1.0  0.5973420286599904  0.8621703466462433  0.5926972305532103  1.0000
  C   C54       1.0  0.9026579711853342  0.36217034698210804  0.9073027691798106  1.0000
  C   C55       1.0  0.40265797145592624  0.1378296547275605  0.40730276926840825  1.0000
  C   C56       1.0  0.0973420282734817  0.6378296543916957  0.0926972306429942  1.0000
  C   C57       1.0  0.5440970623414335  0.7410235888579892  0.6272861145301913  1.0000
  C   C58       1.0  0.955902937591029  0.241023589193854  0.8727138855488223  1.0000
  C   C59       1.0  0.4559029372045203  0.2589764104702813  0.37271388563860647  1.0000
  C   C60       1.0  0.04409706252488764  0.7589764101344166  0.12728611427279599  1.0000
  C   C61       1.0  0.7752191781672377  0.48376956650493186  0.6938578451213526  1.0000
  C   C62       1.0  0.7247808224223257  0.9837695661690671  0.8061421549564748  1.0000
  C   C63       1.0  0.22478082203581695  0.5162304328233387  0.3061421550462587  1.0000
  C   C64       1.0  0.27521917769359094  0.016230433159203455  0.1938578448651438  1.0000
  C   C65       1.0  0.6078391684370472  0.8638309923868481  0.5103913287982634  1.0000
  C   C66       1.0  0.8921608314954151  0.3638309927227128  0.9896086712807503  1.0000
  C   C67       1.0  0.39216083176600736  0.13616900694142245  0.4896086713693478  1.0000
  C   C68       1.0  0.10783916870763936  0.6361690066055578  0.010391328886860984  1.0000
  C   C69       1.0  0.9262330608295029  0.7923760657709991  0.5982393689386448  1.0000
  C   C70       1.0  0.5737669391029596  0.2923760640613304  0.901760631140369  1.0000
  C   C71       1.0  0.07376693937355171  0.20762393560280484  0.4017606312289664  1.0000
  C   C72       1.0  0.42623306035585623  0.7076239352669401  0.098239368682436  1.0000
  C   C73       1.0  0.8378631918543382  0.8739430432159759  0.5948767228986461  1.0000
  C   C74       1.0  0.6621368080781243  0.37394304355184077  0.9051232771803677  1.0000
  C   C75       1.0  0.1621368083487164  0.1260569581578278  0.40512327726896524  1.0000
  C   C76       1.0  0.3378631913806915  0.6260569578219631  0.09487672264243717  1.0000
  N   N1        1.0  0.5812669427355811  0.7482109914282463  0.5490327260474008  1.0000
  N   N2        1.0  0.9187330578539822  0.24821099176411102  0.9509672740304265  1.0000
  N   N3        1.0  0.41873305738033556  0.25178900994555753  0.4509672737742176  1.0000
  N   N4        1.0  0.08126694234907239  0.7517890096096927  0.049032726137184825  1.0000
  N   N5        1.0  0.6588103247299846  0.08590119041607731  0.5168966927908608  1.0000
  N   N6        1.0  0.8411896752024779  0.5859011921257459  0.983103307288153  1.0000
  N   N7        1.0  0.34118967547307  0.9140988089121933  0.4831033073767505  1.0000
  N   N8        1.0  0.15881032491343877  0.4140988092480579  0.01689669253346552  1.0000
  O   O1        1.0  0.6484686647778796  0.11162418055853555  0.682023571727049  1.0000
  O   O2        1.0  0.851531335154583  0.6116241802226707  0.8179764283519648  1.0000
  O   O3        1.0  0.35153133542517506  0.888375818769735  0.3179764284405624  1.0000
  O   O4        1.0  0.1484686643042328  0.3883758191055997  0.18202357147084003  1.0000
  O   O5        1.0  0.7440909527962156  0.37823823388449807  0.6482378073900119  1.0000
  O   O6        1.0  0.7559090477062097  0.8782382355941666  0.8517621923418225  1.0000
  O   O7        1.0  0.25590904731970093  0.6217617654437725  0.35176219243160645  1.0000
  O   O8        1.0  0.24409095240970696  0.1217617657796372  0.14823780747979595  1.0000
  F   F1        1.0  0.5170150724079595  0.7917349608659893  0.8197771602310949  1.0000
  F   F2        1.0  0.9829849280944659  0.2917349591563207  0.6802228395007397  1.0000
  F   F3        1.0  0.4829849277079572  0.20826504050781464  0.18022283959052363  1.0000
  F   F4        1.0  0.017015072021450754  0.7082650401719499  0.3197771603208788  1.0000
  F   F5        1.0  0.21882358644286468  0.15696685613920666  0.8123696887716343  1.0000
  F   F6        1.0  0.2811764132912877  0.6569668558033419  0.6876303109431127  1.0000
  F   F7        1.0  0.7811764136730519  0.843033143189064  0.1876303110499841  1.0000
  F   F8        1.0  0.7188235868246289  0.3430331435249286  0.31236968887850575  1.0000
  F   F9        1.0  0.3355270481588769  0.0668342735280407  0.7521009760373758  1.0000
  F   F10       1.0  0.16447295166241346  0.5668342731921759  0.7478990240233642  1.0000
  F   F11       1.0  0.6644729520441777  0.9331657258002298  0.24789902413023546  1.0000
  F   F12       1.0  0.8355270484535032  0.4331657261360946  0.25210097579825436  1.0000
  F   F13       1.0  0.39807441408889555  0.8911574883431792  0.8788606126537956  1.0000
  F   F14       1.0  0.1019255857323948  0.39115748867904393  0.6211393874069444  1.0000
  F   F15       1.0  0.6019255853699204  0.10884251098509136  0.12113938716900935  1.0000
  F   F16       1.0  0.8980744144706598  0.6088425126947599  0.3788606127606669  1.0000
  S   S1        1.0  0.5740773500179268  0.7298381812581195  0.4577156532340774  1.0000
  S   S2        1.0  0.9259226498226532  0.22983818159398425  0.04228434669559883  1.0000
  S   S3        1.0  0.42592265018512776  0.2701618201156843  0.5422843469335339  1.0000
  S   S4        1.0  0.0740773496361626  0.7701618197798196  0.957715653127206  1.0000
  Cl  Cl1       1.0  0.8238416060386828  0.45648871662381457  0.4971021857253323  1.0000
  Cl  Cl2       1.0  0.6761583938018971  0.9564887162879497  0.0028978142043439344  1.0000
  Cl  Cl3       1.0  0.17615839407723377  0.543511282704456  0.5028978140962862  1.0000
  Cl  Cl4       1.0  0.32384160640115744  0.04351128304032071  0.9971021859632674  1.0000
  I   I1        1.0  0.5202182862117778  0.336137225356456  0.7387173320956797  1.0000
  I   I2        1.0  0.9797817136335467  0.8361372250205912  0.7612826676373412  1.0000
  I   I3        1.0  0.4797817139041389  0.6638627739718145  0.26128266772593883  1.0000
  I   I4        1.0  0.02021828648236984  0.16386277430767926  0.2387173321842772  1.0000
  I   I5        1.0  0.21178831155438063  0.6070219635263435  0.8933564162902182  1.0000
  I   I6        1.0  0.2882116882669096  0.10702196386220827  0.6066435837705216  1.0000
  I   I7        1.0  0.788211688648674  0.39297803784746027  0.10664358387739302  1.0000
  I   I8        1.0  0.711788311936145  0.8929780375115955  0.3933564163970896  1.0000
