data_image0
_chemical_formula_structural       H26C32N6O10F4I2
_chemical_formula_sum              "H26 C32 N6 O10 F4 I2"
_cell_length_a       7.364823498302239
_cell_length_b       8.656635482817949
_cell_length_c       13.566811216776054
_cell_angle_alpha    93.61075190322197
_cell_angle_beta     96.54285430482544
_cell_angle_gamma    101.24667776281

_space_group_name_H-M_alt    "P 1"
_space_group_IT_number       1

loop_
  _space_group_symop_operation_xyz
  'x, y, z'

loop_
  _atom_site_type_symbol
  _atom_site_label
  _atom_site_symmetry_multiplicity
  _atom_site_fract_x
  _atom_site_fract_y
  _atom_site_fract_z
  _atom_site_occupancy
  H   H1        1.0  0.37962764054173503  0.5690672917860123  0.013739259189746035  1.0000
  H   H2        1.0  0.6203723591795097  0.4309327090716154  0.9862607411114869  1.0000
  H   H3        1.0  0.5275642246871887  0.7596745764512313  0.4546089081119594  1.0000
  H   H4        1.0  0.472435776123901  0.2403254232302493  0.5453910921849408  1.0000
  H   H5        1.0  0.10937490214738399  0.6137771512367461  0.9767477611843279  1.0000
  H   H6        1.0  0.8906250973059053  0.3862228484427808  0.023252239114693585  1.0000
  H   H7        1.0  0.03650170392902475  0.7165593309320082  0.07710673453522077  1.0000
  H   H8        1.0  0.963498296698962  0.2834406686495824  0.9228932650169079  1.0000
  H   H9        1.0  0.07540692119679984  0.8120717200629887  0.9693818472177307  1.0000
  H   H10       1.0  0.9245930796142898  0.1879282796184918  0.030618153079169357  1.0000
  H   H11       1.0  0.8505598993400892  0.8977650682194688  0.11253547903208787  1.0000
  H   H12       1.0  0.14944010155585277  0.1022349325402225  0.8874645205222522  1.0000
  H   H13       1.0  0.6652188070587777  0.0957250081666822  0.1287643608036129  1.0000
  H   H14       1.0  0.3347811940202674  0.904274992692899  0.8712356394954986  1.0000
  H   H15       1.0  0.4456995820435665  0.762675194169439  0.2713254809308355  1.0000
  H   H16       1.0  0.5543004190354786  0.2373248066901423  0.7286745193682759  1.0000
  H   H17       1.0  0.8531395635224728  0.19536371161746804  0.2766442968238005  1.0000
  H   H18       1.0  0.1468604359308166  0.804636288062059  0.7233557034752209  1.0000
  H   H19       1.0  0.9255251956995402  0.19608000959441851  0.4619241567592424  1.0000
  H   H20       1.0  0.07447480492844659  0.8039199899871721  0.5380758427928863  1.0000
  H   H21       1.0  0.40082031661193945  0.4183298941451305  0.21640576823584992  1.0000
  H   H22       1.0  0.5991796844671055  0.5816701067144507  0.7835942320632615  1.0000
  H   H23       1.0  0.2024283676396011  0.3392550915310183  0.12471341253893635  1.0000
  H   H24       1.0  0.7975716316305853  0.6607449080486187  0.8752865870153137  1.0000
  H   H25       1.0  0.20923027787586315  0.27699868957153506  0.24912322477023327  1.0000
  H   H26       1.0  0.7907697215774261  0.7230013101079921  0.7508767755287882  1.0000
  C   C1        1.0  0.13328036331741985  0.525086961045049  0.4356194058438164  1.0000
  C   C2        1.0  0.8667196361358693  0.474913038634478  0.564380594455205  1.0000
  C   C3        1.0  0.9470740099716932  0.5173408732614808  0.39790715715714786  1.0000
  C   C4        1.0  0.052925989481596096  0.48265912641804626  0.6020928431418736  1.0000
  C   C5        1.0  0.18568771423526578  0.5085975698705328  0.5359390551282589  1.0000
  C   C6        1.0  0.8143122852180236  0.4914024298089943  0.46406094517076263  1.0000
  C   C7        1.0  0.2833648901627474  0.048780658895965875  0.1286416648298164  1.0000
  C   C8        1.0  0.7166351104652393  0.9512193406856246  0.8713583347223123  1.0000
  C   C9        1.0  0.6287797517934175  0.7170319629694577  0.06879403429227995  1.0000
  C   C10       1.0  0.37122024765987177  0.2829680367100692  0.9312059660067417  1.0000
  C   C11       1.0  0.5953729157868568  0.854683058008303  0.41450471151258944  1.0000
  C   C12       1.0  0.40462708366643246  0.145316941671224  0.5854952887864321  1.0000
  C   C13       1.0  0.12695576186864266  0.7295262720680061  0.01830780333058795  1.0000
  C   C14       1.0  0.8730442375846467  0.2704737276115209  0.9816921969684336  1.0000
  C   C15       1.0  0.40003958075632484  0.9344891292878252  0.10953856204548124  1.0000
  C   C16       1.0  0.5999604203227201  0.065510871571756  0.8904614382536302  1.0000
  C   C17       1.0  0.6062784182779043  0.9773704111638989  0.1492107303148624  1.0000
  C   C18       1.0  0.39372158253318545  0.022629588517581765  0.8507892699820376  1.0000
  C   C19       1.0  0.6446524962623736  0.9797361407640733  0.2622099254378375  1.0000
  C   C20       1.0  0.3553475031909157  0.02026385891545373  0.737790074861184  1.0000
  C   C21       1.0  0.32533200894803477  0.7885513542719055  0.061472055889533306  1.0000
  C   C22       1.0  0.6746679916799518  0.21144864530968507  0.9385279436625954  1.0000
  C   C23       1.0  0.5527022291691461  0.8569266211214762  0.31223076077103484  1.0000
  C   C24       1.0  0.4472977705520986  0.1430733797361515  0.6877692395301981  1.0000
  C   C25       1.0  0.7277302702874532  0.9792434238597517  0.4663857028706425  1.0000
  C   C26       1.0  0.2722697289827331  0.020756575719885345  0.5336142966836076  1.0000
  C   C27       1.0  0.7798217691613728  0.10116021813829935  0.31590877259875993  1.0000
  C   C28       1.0  0.22017823029191652  0.8988397815412277  0.6840912277002617  1.0000
  C   C29       1.0  0.8211157688938562  0.10291413114259419  0.41859556372302703  1.0000
  C   C30       1.0  0.1788842303763302  0.897085868437043  0.581404435831223  1.0000
  C   C31       1.0  0.2918622213062317  0.31444603423182127  0.1895186969783569  1.0000
  C   C32       1.0  0.7081377784150129  0.6855539666258066  0.8104813033228759  1.0000
  N   N1        1.0  0.4374504997525359  0.6801015585063223  0.05041680021314148  1.0000
  N   N2        1.0  0.5625494997856059  0.3198984422514155  0.9495831993433201  1.0000
  N   N3        1.0  0.707465878732362  0.8668613988218499  0.10325314379514823  1.0000
  N   N4        1.0  0.29253412207872764  0.13313860085963056  0.8967468565017519  1.0000
  N   N5        1.0  0.7691477721311468  0.979666548726134  0.5745215796565862  1.0000
  N   N6        1.0  0.23085222867994273  0.02033345095534653  0.42547842064031377  1.0000
  O   O1        1.0  0.7218299521050808  0.6128679124324009  0.0508524698486726  1.0000
  O   O2        1.0  0.2781700489739643  0.3871320884271802  0.949147530450439  1.0000
  O   O3        1.0  0.3907786100705041  0.19301098291468968  0.16185686008694  1.0000
  O   O4        1.0  0.6092213905574827  0.8069890166669009  0.8381431394651887  1.0000
  O   O5        1.0  0.8621951723444516  0.10239506928195152  0.6220369952168102  1.0000
  O   O6        1.0  0.1378048285514904  0.8976049314777397  0.3779630043375299  1.0000
  O   O7        1.0  0.7083312433498823  0.8564841972813673  0.612954520749172  1.0000
  O   O8        1.0  0.2916687574612074  0.1435158024001133  0.3870454795477282  1.0000
  O   O9        1.0  0.11081526752522636  0.024182458605470844  0.11810790366778634  1.0000
  O   O10       1.0  0.8891847319280629  0.9758175410740562  0.8818920966312351  1.0000
  F   F1        1.0  0.26744745767456596  0.5510595568178862  0.374901396257117  1.0000
  F   F2        1.0  0.732552541863576  0.4489404439398516  0.6250986032993446  1.0000
  F   F3        1.0  0.36846295329422585  0.5212863589603812  0.568891245081768  1.0000
  F   F4        1.0  0.6315370459759605  0.4787136406192558  0.43110875447248215  1.0000
  I   I1        1.0  0.8679923685837578  0.5459642491442045  0.24856847775615223  1.0000
  I   I2        1.0  0.1320076324952871  0.4540357517153766  0.7514315225429592  1.0000
