data_image0
_chemical_formula_structural       H10C18N2O4Cl2
_chemical_formula_sum              "H10 C18 N2 O4 Cl2"
_cell_length_a       3.766051464371819
_cell_length_b       10.768254409647437
_cell_length_c       11.047347535194762
_cell_angle_alpha    59.004993500484225
_cell_angle_beta     85.61660388281062
_cell_angle_gamma    86.67882538222493

_space_group_name_H-M_alt    "P 1"
_space_group_IT_number       1

loop_
  _space_group_symop_operation_xyz
  'x, y, z'

loop_
  _atom_site_type_symbol
  _atom_site_label
  _atom_site_symmetry_multiplicity
  _atom_site_fract_x
  _atom_site_fract_y
  _atom_site_fract_z
  _atom_site_occupancy
  H   H1        1.0  0.14188444799385036  0.6401454270191871  0.6405047986298892  1.0000
  H   H2        1.0  0.8581155522558473  0.35985457259073117  0.3594952018030027  1.0000
  H   H3        1.0  0.8030319797574564  0.797381616652146  0.2640361162725945  1.0000
  H   H4        1.0  0.1969680206676556  0.20261838350483372  0.7359638831028623  1.0000
  H   H5        1.0  0.1375968934907901  0.8757300026097248  0.029386765419016504  1.0000
  H   H6        1.0  0.8624031067589074  0.12426999700019342  0.9706132350138755  1.0000
  H   H7        1.0  0.30200002027319023  0.6939145127375667  0.9585397668566027  1.0000
  H   H8        1.0  0.6979999798282415  0.3060854878076889  0.04146023356646929  1.0000
  H   H9        1.0  0.16461016785654708  0.4279153379922887  0.13813661139961805  1.0000
  H   H10       1.0  0.8353898299147658  0.5720846621722314  0.8618633879642899  1.0000
  C   C1        1.0  0.8008818035967942  0.5745027439906669  0.31830997522643034  1.0000
  C   C2        1.0  0.1991181966529034  0.42549725561925145  0.6816900252064616  1.0000
  C   C3        1.0  0.8842276478028817  0.7208863649316964  0.23003378900116006  1.0000
  C   C4        1.0  0.11577235244681591  0.2791136346782218  0.7699662114317319  1.0000
  C   C5        1.0  0.06900448905840739  0.7627911585534598  0.10121840331659543  1.0000
  C   C6        1.0  0.9309955113667048  0.23720884160351982  0.8987815960588613  1.0000
  C   C7        1.0  0.1678002100307765  0.6608244766415862  0.06170968033634795  1.0000
  C   C8        1.0  0.8321997902460698  0.3391755244507307  0.9382903190292888  1.0000
  C   C9        1.0  0.08795801876605484  0.5164407271263156  0.1559641220788479  1.0000
  C   C10       1.0  0.9120419788298436  0.4835592724911432  0.8440358783424954  1.0000
  C   C11       1.0  0.5953176019152921  0.5223192833028938  0.446347058483297  1.0000
  C   C12       1.0  0.4046823956806064  0.4776807163145647  0.5536529419380463  1.0000
  C   C13       1.0  0.33323193804974693  0.8828210042565742  0.49727861268215423  1.0000
  C   C14       1.0  0.6667680621999507  0.11717899535334426  0.5027213877507376  1.0000
  C   C15       1.0  0.4087198751881892  0.0119276806650799  0.3702473683759759  1.0000
  C   C16       1.0  0.591280125088657  0.988072320427237  0.6297526309896609  1.0000
  C   C17       1.0  0.5627146201840629  0.13235801838189376  0.363573367203459  1.0000
  C   C18       1.0  0.4372853799173686  0.8676419821633619  0.636426633219613  1.0000
  N   N1        1.0  0.9119660759157557  0.47655914760750157  0.28019478448857016  1.0000
  N   N2        1.0  0.0880339243339419  0.5234408520024166  0.7198052159443219  1.0000
  O   O1        1.0  0.1815659289359056  0.7760532738422128  0.5056212830867042  1.0000
  O   O2        1.0  0.8184340714892067  0.223946726314767  0.4943787162887526  1.0000
  O   O3        1.0  0.6188358548817225  0.2519598493282584  0.25240214791931276  1.0000
  O   O4        1.0  0.38116414536797494  0.7480401502816599  0.7475978525135794  1.0000
  Cl  Cl1       1.0  0.30548026065002515  0.02775962683671737  0.2123260016520611  1.0000
  Cl  Cl2       1.0  0.6945197397750869  0.9722403733202621  0.7876739977233956  1.0000
