data_image0
_chemical_formula_structural       H64C68N12O12I4
_chemical_formula_sum              "H64 C68 N12 O12 I4"
_cell_length_a       18.608374024433665
_cell_length_b       8.510642034216698
_cell_length_c       10.842931833614648
_cell_angle_alpha    90.0
_cell_angle_beta     102.17702180752264
_cell_angle_gamma    90.0

_space_group_name_H-M_alt    "P 1"
_space_group_IT_number       1

loop_
  _space_group_symop_operation_xyz
  'x, y, z'

loop_
  _atom_site_type_symbol
  _atom_site_label
  _atom_site_symmetry_multiplicity
  _atom_site_fract_x
  _atom_site_fract_y
  _atom_site_fract_z
  _atom_site_occupancy
  H   H1        1.0  0.25788045161218487  0.273182093742471  0.3563706239588058  1.0000
  H   H2        1.0  0.7421195488352403  0.7731820929072404  0.14362937666072922  1.0000
  H   H3        1.0  0.7421195483118876  0.7268179069370667  0.6436293760569384  1.0000
  H   H4        1.0  0.2578804516257535  0.22681790659729786  0.8563706233512178  1.0000
  H   H5        1.0  0.36919572334854783  0.2761391174192771  0.26591731904730653  1.0000
  H   H6        1.0  0.6308042764438315  0.7761391177590459  0.2340826806325455  1.0000
  H   H7        1.0  0.6308042765755246  0.7238608820852611  0.7340826809684377  1.0000
  H   H8        1.0  0.36919572348024104  0.22386088174549226  0.7659173193831986  1.0000
  H   H9        1.0  0.26985346680531974  0.9332765798474848  0.9872592950558948  1.0000
  H   H10       1.0  0.7301465332504459  0.43327657950771586  0.5127407052957415  1.0000
  H   H11       1.0  0.7301465336556742  0.06672341965705349  0.012740704956052255  1.0000
  H   H12       1.0  0.26985346667362653  0.5667234199968223  0.48725929472000273  1.0000
  H   H13       1.0  0.10631064922930775  0.024214472794350968  0.21917657078764471  1.0000
  H   H14       1.0  0.893689350681196  0.5242144731341198  0.28082342983568737  1.0000
  H   H15       1.0  0.8936893506947647  0.9757855267101871  0.7808234292280993  1.0000
  H   H16       1.0  0.10631064924287636  0.47578552637041843  0.7191765701800568  1.0000
  H   H17       1.0  0.9229764206048156  0.7465300449080348  0.08717028781863666  1.0000
  H   H18       1.0  0.07702357918756388  0.24653004456826594  0.41282971186121536  1.0000
  H   H19       1.0  0.07702357931925709  0.2534699545965034  0.9128297121971075  1.0000
  H   H20       1.0  0.9229764207365085  0.7534699549362723  0.5871702881545287  1.0000
  H   H21       1.0  0.8213085646671149  0.5788004418697625  0.9766532979897022  1.0000
  H   H22       1.0  0.1786914353886508  0.07880044152999376  0.5233467023619339  1.0000
  H   H23       1.0  0.178691435793879  0.4211995588097751  0.02334670202224471  1.0000
  H   H24       1.0  0.8213085645354216  0.9211995579745444  0.4766532976538102  1.0000
  H   H25       1.0  0.9509566766307351  0.4865545658425897  0.6944701235760579  1.0000
  H   H26       1.0  0.04904332342503062  0.9865545661823585  0.8055298767755784  1.0000
  H   H27       1.0  0.04904332329333742  0.5134454336619485  0.30552987643968627  1.0000
  H   H28       1.0  0.9509566764990419  0.013445434497179136  0.1944701232401657  1.0000
  H   H29       1.0  0.04767319432214489  0.6634485374075165  0.8184668861360478  1.0000
  H   H30       1.0  0.9523268057336208  0.16344853706774776  0.6815331142155884  1.0000
  H   H31       1.0  0.9523268056019275  0.3365514632720211  0.18153311387969626  1.0000
  H   H32       1.0  0.0476731941904517  0.8365514624367906  0.31846688580015575  1.0000
  H   H33       1.0  0.028042012362964306  0.7833559046657289  0.005643103667371002  1.0000
  H   H34       1.0  0.971957987429415  0.28335590432596  0.494356896012481  1.0000
  H   H35       1.0  0.9719579875611082  0.21664409601380888  0.9943568963483732  1.0000
  H   H36       1.0  0.028042012494657504  0.7166440951785782  0.5056431040032631  1.0000
  H   H37       1.0  0.7746475460764002  0.4116130470434499  0.7947994749687336  1.0000
  H   H38       1.0  0.2253524539793654  0.9116130473832188  0.7052005253829027  1.0000
  H   H39       1.0  0.2253524538476722  0.5883869524610883  0.20520052504701053  1.0000
  H   H40       1.0  0.7746475459447071  0.08838695329631893  0.29479947463284145  1.0000
  H   H41       1.0  0.8276244996740513  0.37888005828890176  0.6758876705094754  1.0000
  H   H42       1.0  0.1723755003817144  0.8788800574536711  0.8241123298421607  1.0000
  H   H43       1.0  0.1723755007869426  0.621119942390636  0.32411232950247154  1.0000
  H   H44       1.0  0.8276244995423581  0.12111994205086708  0.1758876701735833  1.0000
  H   H45       1.0  0.22887608201955745  0.625246752078882  0.9522698321414567  1.0000
  H   H46       1.0  0.7711239179180835  0.12524675173911318  0.5477301672666994  1.0000
  H   H47       1.0  0.7711239184414364  0.3747532486006557  0.047730167870490246  1.0000
  H   H48       1.0  0.22887608200598888  0.8747532489404245  0.45226983274904475  1.0000
  H   H49       1.0  0.31977319859481734  0.644664500979093  0.8133696716202273  1.0000
  H   H50       1.0  0.6802268013428238  0.1446645006393241  0.6866303277879289  1.0000
  H   H51       1.0  0.6802268013292551  0.35533549852544527  0.18663032839551688  1.0000
  H   H52       1.0  0.31977319858124875  0.8553354988652141  0.3133696722278152  1.0000
  H   H53       1.0  0.45483619875834197  0.6414144853059164  0.9137201905826299  1.0000
  H   H54       1.0  0.5451638012974238  0.14141448496614747  0.5862798097690063  1.0000
  H   H55       1.0  0.5451638011657306  0.3585855153736214  0.08627980943311421  1.0000
  H   H56       1.0  0.4548361991635701  0.8585855157133901  0.4137201902429407  1.0000
  H   H57       1.0  0.4919310986045258  0.6145770552880973  0.1502700418764725  1.0000
  H   H58       1.0  0.5080689017247749  0.11457705612332789  0.34972995779958244  1.0000
  H   H59       1.0  0.5080689012014221  0.38542294421644097  0.8497299571957915  1.0000
  H   H60       1.0  0.491931098736219  0.8854229445562097  0.6502700422123646  1.0000
  H   H61       1.0  0.39376942026196476  0.5891871741097746  0.2738072657798996  1.0000
  H   H62       1.0  0.6062305795304145  0.08918717377000578  0.22619273389995234  1.0000
  H   H63       1.0  0.6062305796621077  0.4108128265697631  0.7261927342358444  1.0000
  H   H64       1.0  0.393769420393658  0.9108128257345324  0.7738072661157918  1.0000
  C   C1        1.0  0.2040820373682156  0.0061132626411526106  0.11778063207276646  1.0000
  C   C2        1.0  0.7959179625422883  0.5061132629809214  0.38221936855056565  1.0000
  C   C3        1.0  0.7959179625558569  0.9938867368633856  0.8822193679429777  1.0000
  C   C4        1.0  0.20408203738178418  0.49388673652361675  0.6177806314651785  1.0000
  C   C5        1.0  0.20112078547708984  0.10186899842742525  0.223745811949821  1.0000
  C   C6        1.0  0.798879214433414  0.601868998767194  0.2762541886735111  1.0000
  C   C7        1.0  0.7988792144469826  0.898131001077113  0.7762541880659232  1.0000
  C   C8        1.0  0.20112078549065845  0.39813100191234363  0.723745811342233  1.0000
  C   C9        1.0  0.26095639899065826  0.19900567585743623  0.2756005134154809  1.0000
  C   C10       1.0  0.7390436009198457  0.6990056761972051  0.2243994872078512  1.0000
  C   C11       1.0  0.7390436009334143  0.800994323647102  0.7243994866002632  1.0000
  C   C12       1.0  0.26095639900422685  0.3009943233073331  0.7756005128078929  1.0000
  C   C13       1.0  0.3232718297874389  0.20053012488817193  0.2242789861729788  1.0000
  C   C14       1.0  0.6767281700049403  0.7005301252279408  0.27572101350687317  1.0000
  C   C15       1.0  0.6767281701366334  0.7994698746163663  0.7757210138427652  1.0000
  C   C16       1.0  0.3232718299191321  0.29946987427659744  0.7242789865088709  1.0000
  C   C17       1.0  0.3263688955266048  0.10407054326090201  0.12092600467040221  1.0000
  C   C18       1.0  0.6736311048026958  0.6040705436006709  0.3790739950056527  1.0000
  C   C19       1.0  0.6736311043974677  0.8959294574186357  0.8790739953453419  1.0000
  C   C20       1.0  0.326368895658298  0.39592945707886684  0.6209260050062942  1.0000
  C   C21       1.0  0.26758968836974273  0.008309827826815547  0.06756732271811196  1.0000
  C   C22       1.0  0.7324103114226365  0.5083098281665844  0.43243267696174004  1.0000
  C   C23       1.0  0.7324103115543297  0.9916901716777228  0.9324326772976321  1.0000
  C   C24       1.0  0.26758968850143594  0.4916901725129533  0.567567323054004  1.0000
  C   C25       1.0  0.1398596525521052  0.9065368686617651  0.0587750834364087  1.0000
  C   C26       1.0  0.8601403472402741  0.40653686949699575  0.4412249162434433  1.0000
  C   C27       1.0  0.8601403473719673  0.09346313084277312  0.9412249165793354  1.0000
  C   C28       1.0  0.1398596526837984  0.593463131182542  0.5587750837723008  1.0000
  C   C29       1.0  0.9254908946459454  0.6876817808186269  0.99926669041515  1.0000
  C   C30       1.0  0.07450910540982036  0.18768178165385752  0.500733309936486  1.0000
  C   C31       1.0  0.07450910527812717  0.31231821868591136  0.0007333096005939544  1.0000
  C   C32       1.0  0.9254908945142523  0.8123182190256802  0.49926669007925806  1.0000
  C   C33       1.0  0.8699094984687226  0.5936996597537011  0.9375313397093159  1.0000
  C   C34       1.0  0.1300905014689184  0.09369965941393224  0.5624686596988403  1.0000
  C   C35       1.0  0.1300905014553498  0.4063003409258366  0.06246866030642825  1.0000
  C   C36       1.0  0.8699094984551542  0.9063003412656054  0.4375313403169038  1.0000
  C   C37       1.0  0.8761116399727897  0.5176388423209564  0.8235047143294055  1.0000
  C   C38       1.0  0.12388836008297584  0.017638841981187443  0.6764952860222306  1.0000
  C   C39       1.0  0.12388835995128263  0.48236115718358197  0.17649528568633857  1.0000
  C   C40       1.0  0.8761116398410967  0.9823611575233508  0.32350471399351344  1.0000
  C   C41       1.0  0.9425342249344218  0.542998986612334  0.780257741030746  1.0000
  C   C42       1.0  0.05746577500321912  0.04299898744756466  0.7197422583774101  1.0000
  C   C43       1.0  0.057465774989650546  0.4570010128922042  0.2197422589849982  1.0000
  C   C44       1.0  0.9425342249208534  0.9570010132319732  0.2802577416383339  1.0000
  C   C45       1.0  0.9960952686760945  0.6390777297567998  0.8468535688198877  1.0000
  C   C46       1.0  0.0039047312615463803  0.13907772941703098  0.6531464305882685  1.0000
  C   C47       1.0  0.003904731247977775  0.3609222709227379  0.15314643119585641  1.0000
  C   C48       1.0  0.9960952686625262  0.8609222712625068  0.34685356942747564  1.0000
  C   C49       1.0  0.2878360754629047  0.6204544273828106  0.9922918997049186  1.0000
  C   C50       1.0  0.7121639245928609  0.1204544270430418  0.5077081006467176  1.0000
  C   C51       1.0  0.7121639249980891  0.3795455732967271  0.007708100307028317  1.0000
  C   C52       1.0  0.2878360753312115  0.8795455736364959  0.4922918993690266  1.0000
  C   C53       1.0  0.3387868129858676  0.6333121471130085  0.9150854139719965  1.0000
  C   C54       1.0  0.6612131869517734  0.13331214677323971  0.5849145854361596  1.0000
  C   C55       1.0  0.6612131874751263  0.3666878535665291  0.08491458603995049  1.0000
  C   C56       1.0  0.338786812972299  0.8666878527312984  0.4150854145795846  1.0000
  C   C57       1.0  0.41344184216595553  0.6309362640810698  0.9709347230416882  1.0000
  C   C58       1.0  0.58655815788981  0.13093626491630048  0.529065277309948  1.0000
  C   C59       1.0  0.5865581577581169  0.3690637354234684  0.029065276974055945  1.0000
  C   C60       1.0  0.4134418420342624  0.8690637357632373  0.4709347227057961  1.0000
  C   C61       1.0  0.4343026796563266  0.6157359784293063  0.10178401989868706  1.0000
  C   C62       1.0  0.5656973201360528  0.11573597808953744  0.39821597978116496  1.0000
  C   C63       1.0  0.5656973202677459  0.38426402107523194  0.8982159801170571  1.0000
  C   C64       1.0  0.4343026797880197  0.8842640214150007  0.6017840202345792  1.0000
  C   C65       1.0  0.37947475602973246  0.6026172407887005  0.1712356947939958  1.0000
  C   C66       1.0  0.6205252438807713  0.10261724044893168  0.32876430582933625  1.0000
  C   C67       1.0  0.6205252438943399  0.39738275871583767  0.8287643052217482  1.0000
  C   C68       1.0  0.3794747560433011  0.8973827590556066  0.6712356941864079  1.0000
  N   N1        1.0  0.9871643337123047  0.7104481924737063  0.9541657948908842  1.0000
  N   N2        1.0  0.012835666225336429  0.21044819213393748  0.545834204517272  1.0000
  N   N3        1.0  0.012835666748689242  0.2895518070308319  0.045834205121062864  1.0000
  N   N4        1.0  0.9871643336987361  0.7895518073706008  0.4541657954984722  1.0000
  N   N5        1.0  0.821956149662984  0.4271915004041902  0.7604639177326785  1.0000
  N   N6        1.0  0.17804385027465705  0.927191500743959  0.7395360816754777  1.0000
  N   N7        1.0  0.17804385026108846  0.5728084991003481  0.23953608228306567  1.0000
  N   N8        1.0  0.8219561501863369  0.07280849993557872  0.2604639183364693  1.0000
  N   N9        1.0  0.30729055531748206  0.60524017216218  0.11837842182032797  1.0000
  N   N10       1.0  0.6927094444748972  0.10524017182241115  0.381621577859524  1.0000
  N   N11       1.0  0.6927094446065905  0.39475982851735775  0.8816215781954161  1.0000
  N   N12       1.0  0.3072905554491752  0.8947598288571266  0.6183784221562201  1.0000
  O   O1        1.0  0.14136482603694334  0.8258369687906725  0.9617768996589631  1.0000
  O   O2        1.0  0.8586351739006978  0.3258369684509036  0.538223099749193  1.0000
  O   O3        1.0  0.8586351738871291  0.1741630307138658  0.03822310035678097  1.0000
  O   O4        1.0  0.14136482656029617  0.6741630310536346  0.46177690026275403  1.0000
  O   O5        1.0  0.08321021488041541  0.9095763068023897  0.11087581099226734  1.0000
  O   O6        1.0  0.9167897854488852  0.4095763076376202  0.38912418868378756  1.0000
  O   O7        1.0  0.9167897850436572  0.09042369270214866  0.8891241890234767  1.0000
  O   O8        1.0  0.08321021501210861  0.5904236930419176  0.6108758113281594  1.0000
  O   O9        1.0  0.141581127601661  0.10151123223449193  0.2755745926023824  1.0000
  O   O10       1.0  0.858418872308843  0.6015112325742608  0.22442540802094973  1.0000
  O   O11       1.0  0.8584188723224115  0.8984887672700462  0.7244254074133617  1.0000
  O   O12       1.0  0.1415811276152296  0.39848876693027746  0.7755745919947944  1.0000
  I   I1        1.0  0.422596321708587  0.10369027700284669  0.04647204873287495  1.0000
  I   I2        1.0  0.5774036786207136  0.6036902761676161  0.45352795094317994  1.0000
  I   I3        1.0  0.5774036780973608  0.896309723676691  0.953527950339389  1.0000
  I   I4        1.0  0.42259632130335884  0.39630972333692216  0.5464720490725642  1.0000
