data_image0
_chemical_formula_structural       H30B2C34N6O2F4S2Cl2
_chemical_formula_sum              "H30 B2 C34 N6 O2 F4 S2 Cl2"
_cell_length_a       6.992931514390396
_cell_length_b       11.054996114361732
_cell_length_c       11.381588619535352
_cell_angle_alpha    86.85655225948265
_cell_angle_beta     76.46278696479774
_cell_angle_gamma    88.98259894739402

_space_group_name_H-M_alt    "P 1"
_space_group_IT_number       1

loop_
  _space_group_symop_operation_xyz
  'x, y, z'

loop_
  _atom_site_type_symbol
  _atom_site_label
  _atom_site_symmetry_multiplicity
  _atom_site_fract_x
  _atom_site_fract_y
  _atom_site_fract_z
  _atom_site_occupancy
  H   H1        1.0  0.9275963502768146  0.6243305747491333  0.5179008196899835  1.0000
  H   H2        1.0  0.07240364969881621  0.3756694250974158  0.48209917956412257  1.0000
  H   H3        1.0  0.8133816031220819  0.8540783316743673  0.5734086534115075  1.0000
  H   H4        1.0  0.18661839649948594  0.1459216681231753  0.42659134674752136  1.0000
  H   H5        1.0  0.938682386536602  0.9947353234333524  0.37046841898743954  1.0000
  H   H6        1.0  0.06131761308496589  0.0052646763641902095  0.6295315811715892  1.0000
  H   H7        1.0  0.3776054788292128  0.582625388694285  0.8496632928193117  1.0000
  H   H8        1.0  0.622394520792355  0.41737461110325746  0.15033670733971707  1.0000
  H   H9        1.0  0.25840593281026425  0.4488986625869689  0.05976998417209227  1.0000
  H   H10       1.0  0.741594066779401  0.5511013381151842  0.940230015988685  1.0000
  H   H11       1.0  0.09958907208536337  0.07556794985267737  0.23621388862214518  1.0000
  H   H12       1.0  0.9004109275362044  0.9244320499448653  0.7637861115368836  1.0000
  H   H13       1.0  0.16589727381613012  0.2621344764132271  0.1088709134635814  1.0000
  H   H14       1.0  0.8341027258054375  0.7378655233843154  0.8911290866954474  1.0000
  H   H15       1.0  0.3755997146975675  0.05335146093736197  0.793859770631038  1.0000
  H   H16       1.0  0.6244002848920976  0.9466485397647912  0.2061402295297392  1.0000
  H   H17       1.0  0.37475722525489286  0.8460931680910948  0.8121604224226064  1.0000
  H   H18       1.0  0.6252427743666749  0.15390683170644776  0.18783957773642254  1.0000
  H   H19       1.0  0.570330971934046  0.6394797124064997  0.543087056125546  1.0000
  H   H20       1.0  0.4296690276875217  0.360520287391043  0.4569129440334828  1.0000
  H   H21       1.0  0.3474553604516285  0.6059911163533244  0.4965656618695754  1.0000
  H   H22       1.0  0.6525446405972314  0.3940088834475492  0.5034343382962202  1.0000
  H   H23       1.0  0.35411203464293833  0.5847516403307852  0.6524342261156101  1.0000
  H   H24       1.0  0.6458879649786294  0.41524835946675753  0.3475657740434188  1.0000
  H   H25       1.0  0.38070972964571936  0.9516871272248923  0.4421414835435133  1.0000
  H   H26       1.0  0.6192902699758484  0.04831287257265021  0.5578585166155156  1.0000
  H   H27       1.0  0.3411303565687231  0.8088066284155474  0.38407523177595815  1.0000
  H   H28       1.0  0.6588696444482341  0.19119337228993677  0.6159247683915857  1.0000
  H   H29       1.0  0.5752566076727259  0.8397931283496067  0.4174524902120208  1.0000
  H   H30       1.0  0.424743392302905  0.16020687149694224  0.5825475090420853  1.0000
  B   B1        1.0  0.12240047621771107  0.5837418089620044  0.2778776018661186  1.0000
  B   B2        1.0  0.8775995234038566  0.4162581908355382  0.7221223982929103  1.0000
  C   C1        1.0  0.950871371877192  0.7061446830703205  0.45915941440147057  1.0000
  C   C2        1.0  0.04912862917166779  0.29385531673055304  0.540840585764325  1.0000
  C   C3        1.0  0.8972844931003859  0.8253928913792744  0.4866989812302191  1.0000
  C   C4        1.0  0.10271550648927918  0.17460710932287882  0.5133010189305581  1.0000
  C   C5        1.0  0.9610239917024068  0.8978358594126894  0.379710769096978  1.0000
  C   C6        1.0  0.03897600791916094  0.10216414038485319  0.6202892310620509  1.0000
  C   C7        1.0  0.05443623187174365  0.8212447487467545  0.28823537756084544  1.0000
  C   C8        1.0  0.945563769177116  0.17875525105411907  0.7117646226049501  1.0000
  C   C9        1.0  0.14783282357656372  0.8398866480979773  0.16215074630603826  1.0000
  C   C10       1.0  0.8521671760131013  0.16011335260417578  0.837849253854739  1.0000
  C   C11       1.0  0.20430948051039424  0.7364688561430776  0.09764657971413662  1.0000
  C   C12       1.0  0.7956905191111735  0.2635311436544651  0.9023534204448923  1.0000
  C   C13       1.0  0.286158241667545  0.7373343368443329  0.9708961123444024  1.0000
  C   C14       1.0  0.7138417582761832  0.2626656639068268  0.029103886911452027  1.0000
  C   C15       1.0  0.3166876710697123  0.6157276307019856  0.9385649630493976  1.0000
  C   C16       1.0  0.6833123285518556  0.3842723690955571  0.06143503710963106  1.0000
  C   C17       1.0  0.25486752882196534  0.546548231219377  0.04636214349920902  1.0000
  C   C18       1.0  0.7451324707676997  0.45345176948277616  0.9536378566615682  1.0000
  C   C19       1.0  0.19033748730739922  0.9528056004994763  0.09124044759484316  1.0000
  C   C20       1.0  0.8096625137414607  0.04719439930139728  0.9087595525709523  1.0000
  C   C21       1.0  0.1564451438104134  0.06882915710422345  0.13950329292926153  1.0000
  C   C22       1.0  0.8435548557792516  0.9311708435979298  0.8604967072315157  1.0000
  C   C23       1.0  0.19538257940347395  0.17475059278549177  0.06830112868440778  1.0000
  C   C24       1.0  0.8046174216453859  0.8252494070153817  0.9316988714813877  1.0000
  C   C25       1.0  0.2734378485175872  0.16881868593989577  0.9426807942027435  1.0000
  C   C26       1.0  0.7265621524993701  0.8311813147655884  0.057319205964800446  1.0000
  C   C27       1.0  0.3143076636300427  0.05884751646540186  0.890617787259436  1.0000
  C   C28       1.0  0.6856923363136855  0.9411524842857578  0.10938221199641858  1.0000
  C   C29       1.0  0.2742638709543078  0.9506774926488869  0.9633056114268858  1.0000
  C   C30       1.0  0.7257361290213231  0.04932250719766225  0.03669438782722045  1.0000
  C   C31       1.0  0.40926875917972994  0.6394605203817834  0.5686980303235205  1.0000
  C   C32       1.0  0.5907312404418379  0.3605394794157593  0.43130196983550834  1.0000
  C   C33       1.0  0.41584825051414154  0.8547206609357175  0.44342640517863874  1.0000
  C   C34       1.0  0.5841517508887816  0.1452793389141624  0.556573594082234  1.0000
  N   N1        1.0  0.04424768388177996  0.7027143550411497  0.34013746409909446  1.0000
  N   N2        1.0  0.9557523157397877  0.2972856447563929  0.6598625360599344  1.0000
  N   N3        1.0  0.18699789175657336  0.618146474565421  0.14198201407776118  1.0000
  N   N4        1.0  0.8130021078649946  0.3818535252321217  0.8580179860812676  1.0000
  N   N5        1.0  0.3180473674700749  0.8442156740579551  0.9069700011486497  1.0000
  N   N6        1.0  0.6819526321514928  0.1557843257395877  0.0930299990103791  1.0000
  O   O1        1.0  0.45978093287257044  0.8456637185124365  0.6684623141139335  1.0000
  O   O2        1.0  0.5402190681762894  0.15433628128843696  0.33153768605186196  1.0000
  F   F1        1.0  0.28415710306031594  0.5375542461077173  0.323249470243498  1.0000
  F   F2        1.0  0.7158428965612517  0.46244575368982527  0.676750529915531  1.0000
  F   F3        1.0  0.9752959527036493  0.4940482926317797  0.30150406065574914  1.0000
  F   F4        1.0  0.024704046886015886  0.5059517080703735  0.6984959395050281  1.0000
  S   S1        1.0  0.32648196749405656  0.7925208232194358  0.5950611674738019  1.0000
  S   S2        1.0  0.6735180335548033  0.20747917658143758  0.40493883269199354  1.0000
  Cl  Cl1       1.0  0.3198797670484652  0.3005343926813286  0.8524943967049474  1.0000
  Cl  Cl2       1.0  0.6801202325731025  0.6994656071162141  0.14750560345408145  1.0000
