data_image0
_chemical_formula_structural       H60B4C68N12O4F8S4Cl4
_chemical_formula_sum              "H60 B4 C68 N12 O4 F8 S4 Cl4"
_cell_length_a       7.2213887728950255
_cell_length_b       19.81470614664621
_cell_length_c       11.825054450267178
_cell_angle_alpha    90.0
_cell_angle_beta     94.34525306599872
_cell_angle_gamma    90.0

_space_group_name_H-M_alt    "P 1"
_space_group_IT_number       1

loop_
  _space_group_symop_operation_xyz
  'x, y, z'

loop_
  _atom_site_type_symbol
  _atom_site_label
  _atom_site_symmetry_multiplicity
  _atom_site_fract_x
  _atom_site_fract_y
  _atom_site_fract_z
  _atom_site_occupancy
  H   H1        1.0  0.5584885959820239  0.7468821157615242  0.18631623271672584  1.0000
  H   H2        1.0  0.44151140384083376  0.24688211592923323  0.3136837669936513  1.0000
  H   H3        1.0  0.441511403656051  0.2531178839030577  0.8136837667062633  1.0000
  H   H4        1.0  0.558488595889126  0.7531178842400243  0.6863162332773984  1.0000
  H   H5        1.0  0.3972499168727591  0.7049645917844864  0.524114154844349  1.0000
  H   H6        1.0  0.6027500826724179  0.2049645919521955  0.9758858451393129  1.0000
  H   H7        1.0  0.6027500827653157  0.29503540838477116  0.47588584457864025  1.0000
  H   H8        1.0  0.39724991705754187  0.7950354082170621  0.024114155131736897  1.0000
  H   H9        1.0  0.23544787008100695  0.3839789772147484  0.16007916151524884  1.0000
  H   H10       1.0  0.7645521298337354  0.883978977551715  0.33992083904318887  1.0000
  H   H11       1.0  0.7645521296489528  0.6160210224498336  0.8399208387558008  1.0000
  H   H12       1.0  0.2354478698962242  0.11602102261754257  0.6600791612278608  1.0000
  H   H13       1.0  0.35304631826866584  0.48704322227021474  0.03147987705402245  1.0000
  H   H14       1.0  0.6469536816460767  0.9870432226071814  0.46852012350441524  1.0000
  H   H15       1.0  0.646953681461294  0.5129567773943672  0.9685201232170273  1.0000
  H   H16       1.0  0.35304631808388315  0.012956777562076253  0.5314798767666344  1.0000
  H   H17       1.0  0.327044619040961  0.6308539620768361  0.6011695128506491  1.0000
  H   H18       1.0  0.67295538188994  0.13085396224454515  0.8988304871411777  1.0000
  H   H19       1.0  0.672955381982838  0.36914603758774583  0.39883048658050513  1.0000
  H   H20       1.0  0.3270446192257438  0.8691460379247123  0.1011695131380372  1.0000
  H   H21       1.0  0.13061836899261048  0.45639632468284963  0.769722612916789  1.0000
  H   H22       1.0  0.8693816305525666  0.9563963245151406  0.7302773870668726  1.0000
  H   H23       1.0  0.8693816306454645  0.543603675486408  0.2302773865062001  1.0000
  H   H24       1.0  0.1306183691773932  0.04360367565411701  0.26972261320417706  1.0000
  H   H25       1.0  0.1328402803226176  0.390365070405508  0.5902344731265295  1.0000
  H   H26       1.0  0.8671597206082835  0.8903650702377991  0.9097655268652973  1.0000
  H   H27       1.0  0.8671597194073422  0.6096349297637497  0.4097655271445202  1.0000
  H   H28       1.0  0.13284028041551546  0.10963492942678298  0.09023447256585702  1.0000
  H   H29       1.0  0.5155729455146022  0.8025940083240514  0.39430276684176285  1.0000
  H   H30       1.0  0.4844270543082555  0.3025940084917604  0.10569723286861442  1.0000
  H   H31       1.0  0.48442705550919685  0.19740599134053058  0.6056972325893916  1.0000
  H   H32       1.0  0.5155729454217043  0.6974059911728216  0.8943027674024353  1.0000
  H   H33       1.0  0.18556471532924715  0.3834063505042624  0.39914868645650664  1.0000
  H   H34       1.0  0.8144352844936105  0.883406350841229  0.10085131325387058  1.0000
  H   H35       1.0  0.8144352844007128  0.6165936491603196  0.6008513138145432  1.0000
  H   H36       1.0  0.1855647151444644  0.11659364932802854  0.8991486861691186  1.0000
  H   H37       1.0  0.09034014631132235  0.7321057109118587  0.30209602501988  1.0000
  H   H38       1.0  0.9096598535115353  0.23210571057489204  0.19790397469049723  1.0000
  H   H39       1.0  0.9096598534186374  0.26789428925739894  0.6979039752511698  1.0000
  H   H40       1.0  0.09034014612653962  0.7678942890896898  0.802096024732492  1.0000
  H   H41       1.0  0.09729785165540317  0.6598834226069565  0.21155414017242172  1.0000
  H   H42       1.0  0.9027021482593394  0.15988342277466555  0.288445860386016  1.0000
  H   H43       1.0  0.9027021480745567  0.3401165775623011  0.788445860098628  1.0000
  H   H44       1.0  0.09729785147062044  0.840116577394592  0.7115541398850336  1.0000
  H   H45       1.0  0.8749042679258849  0.691665083931598  0.24896036143583122  1.0000
  H   H46       1.0  0.1250957318969727  0.19166508409930694  0.25103963827454595  1.0000
  H   H47       1.0  0.12509573180407482  0.30833491573298405  0.7510396388352184  1.0000
  H   H48       1.0  0.8749042677411023  0.8083349160699508  0.7489603611484432  1.0000
  H   H49       1.0  0.8146491580305318  0.6689069760564363  0.034559498916708745  1.0000
  H   H50       1.0  0.1853508417923258  0.16890697571946978  0.4654405007936685  1.0000
  H   H51       1.0  0.1853508416075431  0.3310930241128212  0.9654405005062805  1.0000
  H   H52       1.0  0.814649157937634  0.8310930239451121  0.5345594994773812  1.0000
  H   H53       1.0  0.048765293796740855  0.6665169471733678  0.9892040370024301  1.0000
  H   H54       1.0  0.9512347057484362  0.16651694683640125  0.5107959629812316  1.0000
  H   H55       1.0  0.951234705933219  0.3334830529958897  0.010795963268619677  1.0000
  H   H56       1.0  0.04876529398152357  0.8334830528281807  0.48920403728981804  1.0000
  H   H57       1.0  0.883054832146391  0.727149884705139  0.9286553676388853  1.0000
  H   H58       1.0  0.11694516878451008  0.227149884872848  0.5713446323529416  1.0000
  H   H59       1.0  0.11694516758356878  0.27285011495944295  0.0713446326321645  1.0000
  H   H60       1.0  0.8830548323311738  0.7728501152964096  0.42865536792627323  1.0000
  B   B1        1.0  0.4510347297643552  0.6124082386179565  0.1531854827380148  1.0000
  B   B2        1.0  0.5489652700585025  0.11240823828098977  0.3468145169723624  1.0000
  B   B3        1.0  0.5489652699656046  0.3875917615513012  0.846814517533035  1.0000
  B   B4        1.0  0.45103472957957247  0.8875917613835922  0.6531854824506268  1.0000
  C   C1        1.0  0.5090964725780477  0.7232425827533963  0.2613232228627417  1.0000
  C   C2        1.0  0.4909035287224189  0.22324258292110524  0.2386767777038612  1.0000
  C   C3        1.0  0.4909035285376361  0.2767574169111857  0.7386767774164732  1.0000
  C   C4        1.0  0.5090964723932649  0.7767574172481524  0.7613232225753537  1.0000
  C   C5        1.0  0.42638993698102395  0.6988273955475095  0.436448871234763  1.0000
  C   C6        1.0  0.5736100628418338  0.19882739571521857  0.06355112847561423  1.0000
  C   C7        1.0  0.5736100626570511  0.30117260462174805  0.5635511281882262  1.0000
  C   C8        1.0  0.4263899368881261  0.801172604454039  0.9364488717954356  1.0000
  C   C9        1.0  0.40693233286548386  0.6400757874547981  0.3696349650078985  1.0000
  C   C10       1.0  0.5930676683430978  0.14007578762250708  0.13036503471064378  1.0000
  C   C11       1.0  0.5930676681583151  0.35992421220978393  0.6303650344232558  1.0000
  C   C12       1.0  0.40693233277258595  0.8599242125467506  0.869634965568571  1.0000
  C   C13       1.0  0.343299377221706  0.5726639237554675  0.38852090129807354  1.0000
  C   C14       1.0  0.6567006226011517  0.07266392392317661  0.11147909841230359  1.0000
  C   C15       1.0  0.6567006225082538  0.42733607641379  0.6114790989729761  1.0000
  C   C16       1.0  0.3432993770369233  0.927336076246081  0.8885209010106856  1.0000
  C   C17       1.0  0.33083311124157444  0.5294223841808308  0.29518775378763523  1.0000
  C   C18       1.0  0.6691668885812831  0.02942238434853986  0.20481224592274191  1.0000
  C   C19       1.0  0.6691668884883853  0.47057761548375115  0.7048122464834146  1.0000
  C   C20       1.0  0.3308331110567917  0.9705776158207177  0.7951877535002473  1.0000
  C   C21       1.0  0.27133285795137113  0.46113605886335857  0.2983523454218499  1.0000
  C   C22       1.0  0.7286671419633715  0.9611360586956496  0.2016476551365878  1.0000
  C   C23       1.0  0.7286671417785887  0.538863941305899  0.7016476548491998  1.0000
  C   C24       1.0  0.2713328577665884  0.038863941473608055  0.7983523451344621  1.0000
  C   C25       1.0  0.2737726446757602  0.434526529249454  0.187483511482249  1.0000
  C   C26       1.0  0.7262273565328216  0.9345265295864206  0.3125164882362933  1.0000
  C   C27       1.0  0.7262273564399235  0.565473470415128  0.8125164887969658  1.0000
  C   C28       1.0  0.27377264449097743  0.06547347058283699  0.687483511194861  1.0000
  C   C29       1.0  0.33401645766461036  0.48706401238423164  0.12161610711942371  1.0000
  C   C30       1.0  0.6659835421582473  0.9870640122165226  0.37838389259095345  1.0000
  C   C31       1.0  0.6659835420653494  0.512935987785026  0.878383893151626  1.0000
  C   C32       1.0  0.33401645747982767  0.01293598744805936  0.6216161068320357  1.0000
  C   C33       1.0  0.286715776904784  0.5429039033122772  0.4923268401298378  1.0000
  C   C34       1.0  0.7132842229180737  0.042903902975310625  0.007673159580539411  1.0000
  C   C35       1.0  0.7132842227332911  0.4570960968569803  0.5076731592931515  1.0000
  C   C36       1.0  0.28671577681188615  0.9570960966892713  0.9923268406905102  1.0000
  C   C37       1.0  0.2838502801512121  0.5785567257549443  0.596019395975655  1.0000
  C   C38       1.0  0.7161497193939651  0.0785567259226533  0.9039806040080067  1.0000
  C   C39       1.0  0.7161497195787477  0.4214432739096377  0.4039806042953947  1.0000
  C   C40       1.0  0.28385028024410996  0.9214432742466043  0.09601939541498247  1.0000
  C   C41       1.0  0.22661118150917894  0.5479274802083115  0.6923473826305753  1.0000
  C   C42       1.0  0.7733888180359981  0.04792747987134488  0.8076526173530864  1.0000
  C   C43       1.0  0.773388818128896  0.45207251996094605  0.3076526167924139  1.0000
  C   C44       1.0  0.22661118169396166  0.952072519793237  0.1923473829179633  1.0000
  C   C45       1.0  0.1710692642800822  0.4797272263161422  0.692164570437318  1.0000
  C   C46       1.0  0.8289307352650949  0.9797272266531089  0.8078354295463436  1.0000
  C   C47       1.0  0.8289307353579927  0.5202727733484398  0.30783542898567107  1.0000
  C   C48       1.0  0.17106926446486495  0.020272773516148795  0.1921645707247061  1.0000
  C   C49       1.0  0.17366550039643053  0.4433274445246733  0.59323640688486  1.0000
  C   C50       1.0  0.8263345005344706  0.9433274443569643  0.9067635931069669  1.0000
  C   C51       1.0  0.8263344992416445  0.5566725556445844  0.40676359253812916  1.0000
  C   C52       1.0  0.17366550058121327  0.05667255530761771  0.09323640717224801  1.0000
  C   C53       1.0  0.2289424422090466  0.4734559851945052  0.4928760685172899  1.0000
  C   C54       1.0  0.771057557613811  0.9734559850267962  0.0071239311930872806  1.0000
  C   C55       1.0  0.7710575574290284  0.5265440149747523  0.5071239309056993  1.0000
  C   C56       1.0  0.2289424421161487  0.026544014637785735  0.9928760690779624  1.0000
  C   C57       1.0  0.48993434542831366  0.7507410561583235  0.36838019374800657  1.0000
  C   C58       1.0  0.510065654394544  0.2507410563260325  0.1316198059623706  1.0000
  C   C59       1.0  0.5100656542097614  0.24925894350625846  0.6316198056749827  1.0000
  C   C60       1.0  0.48993434533541574  0.7492589438432251  0.8683801943086791  1.0000
  C   C61       1.0  0.017649141248184536  0.7046831523344775  0.2315953191482962  1.0000
  C   C62       1.0  0.982350858666558  0.20468315199751091  0.26840468141014157  1.0000
  C   C63       1.0  0.9823508584817753  0.29531684783478007  0.7684046811227535  1.0000
  C   C64       1.0  0.017649141063401805  0.795316847667071  0.7315953188609081  1.0000
  C   C65       1.0  0.9295109864415378  0.6984447353180878  0.004661572560802073  1.0000
  C   C66       1.0  0.07048901338131984  0.19844473548579686  0.49533842714957516  1.0000
  C   C67       1.0  0.07048901319653711  0.3015552648511698  0.9953384268621871  1.0000
  C   C68       1.0  0.9295109863486399  0.8015552646834607  0.5046615731214746  1.0000
  N   N1        1.0  0.4593970781213271  0.6567815794837163  0.2612066610505317  1.0000
  N   N2        1.0  0.5406029217934154  0.15678157965142533  0.23879333950790602  1.0000
  N   N3        1.0  0.5406029216086328  0.3432184206855413  0.738793339220518  1.0000
  N   N4        1.0  0.45939707793654433  0.8432184205178322  0.7612066607631437  1.0000
  N   N5        1.0  0.3695002654396802  0.5442545435792554  0.18580638161213442  1.0000
  N   N6        1.0  0.6304997343831775  0.04425454374696444  0.3141936180982428  1.0000
  N   N7        1.0  0.6304997341983948  0.45574545608532646  0.8141936178108549  1.0000
  N   N8        1.0  0.3695002653467824  0.9557454564222931  0.685806382172807  1.0000
  N   N9        1.0  0.22453500799091783  0.43467780527534183  0.3971761166712312  1.0000
  N   N10       1.0  0.7754649918319397  0.9346778051076328  0.10282388303914601  1.0000
  N   N11       1.0  0.775464993124766  0.5653221948939158  0.6028238836079838  1.0000
  N   N12       1.0  0.22453500780613508  0.06532219506162483  0.8971761163838432  1.0000
  O   O1        1.0  0.8347498915703493  0.8039726474922443  0.12490325847204041  1.0000
  O   O2        1.0  0.16525010825250838  0.30397264715527766  0.37509674123833686  1.0000
  O   O3        1.0  0.16525010945344967  0.1960273526770133  0.8750967409591139  1.0000
  O   O4        1.0  0.8347498914774514  0.6960273525093043  0.6249032590327129  1.0000
  F   F1        1.0  0.33838234535054973  0.6441204742347514  0.06488170796901284  1.0000
  F   F2        1.0  0.6616176544723079  0.14412047389778473  0.4351182917413643  1.0000
  F   F3        1.0  0.66161765437941  0.3558795259345062  0.935118292302037  1.0000
  F   F4        1.0  0.33838234516576704  0.8558795257667973  0.5648817076816248  1.0000
  F   F5        1.0  0.6310085463267732  0.60381172102444  0.11355188646602644  1.0000
  F   F6        1.0  0.3689914535879693  0.10381172068747346  0.38644811409241125  1.0000
  F   F7        1.0  0.3689914534031865  0.3961882791448175  0.8864481138050233  1.0000
  F   F8        1.0  0.6310085475277145  0.8961882789771085  0.6135518861868036  1.0000
  S   S1        1.0  0.00400640147379477  0.7598110564232741  0.11044899137784699  1.0000
  S   S2        1.0  0.995993598349063  0.25981105659098314  0.3895510083325302  1.0000
  S   S3        1.0  0.995993598256165  0.24018894374598349  0.8895510088932027  1.0000
  S   S4        1.0  0.0040064012890120345  0.7401889435782745  0.6104489910904589  1.0000
  Cl  Cl1       1.0  0.22409433031645412  0.5936941786033565  0.816795878346048  1.0000
  Cl  Cl2       1.0  0.7759056692287231  0.09369417826638982  0.6832041216376139  1.0000
  Cl  Cl3       1.0  0.7759056694135058  0.40630582156590117  0.1832041219250018  1.0000
  Cl  Cl4       1.0  0.22409433040935198  0.9063058213981922  0.3167958777853754  1.0000
