data_image0
_chemical_formula_structural       H40C32N8O12
_chemical_formula_sum              "H40 C32 N8 O12"
_cell_length_a       6.0907351573033965
_cell_length_b       19.403601089381894
_cell_length_c       6.768141988153849
_cell_angle_alpha    90.0
_cell_angle_beta     92.4615237644716
_cell_angle_gamma    90.0

_space_group_name_H-M_alt    "P 1"
_space_group_IT_number       1

loop_
  _space_group_symop_operation_xyz
  'x, y, z'

loop_
  _atom_site_type_symbol
  _atom_site_label
  _atom_site_symmetry_multiplicity
  _atom_site_fract_x
  _atom_site_fract_y
  _atom_site_fract_z
  _atom_site_occupancy
  H   H1        1.0  0.06714016503794833  0.3294365139004013  0.669593403260587  1.0000
  H   H2        1.0  0.9328598361531586  0.8294365136586448  0.8304065975446294  1.0000
  H   H3        1.0  0.9328598355578714  0.670563486131454  0.3304065976930449  1.0000
  H   H4        1.0  0.06714016444266149  0.1705634858578422  0.16959340340900253  1.0000
  H   H5        1.0  0.25661045698715046  0.22104610995878962  0.6044168459120319  1.0000
  H   H6        1.0  0.7433895425607053  0.7210461102324014  0.8955831548462363  1.0000
  H   H7        1.0  0.7433895419654183  0.7789538895576974  0.39558315499465185  1.0000
  H   H8        1.0  0.2566104580351147  0.27895388979945385  0.1044168461073957  1.0000
  H   H9        1.0  0.8115585629796582  0.3332119867965169  0.3954134041477859  1.0000
  H   H10       1.0  0.1884414370024525  0.8332119865547605  0.10458659547613203  1.0000
  H   H11       1.0  0.1884414359544883  0.6667880132353384  0.6045865952807682  1.0000
  H   H12       1.0  0.811558563574945  0.16678801347709488  0.8954134039993703  1.0000
  H   H13       1.0  0.6203597363945823  0.4446356235761406  0.45558180824306066  1.0000
  H   H14       1.0  0.37964026358752845  0.9446356233343842  0.04441819138085728  1.0000
  H   H15       1.0  0.3796402641828153  0.5553643764557147  0.5444181912324416  1.0000
  H   H16       1.0  0.6203597353466181  0.055364376697471115  0.9555818080476969  1.0000
  H   H17       1.0  0.05523025858352593  0.44507582021596304  0.755852999319785  1.0000
  H   H18       1.0  0.9447697409643299  0.9450758199742065  0.7441470014384831  1.0000
  H   H19       1.0  0.944769740369043  0.5549241798158923  0.24414700158689867  1.0000
  H   H20       1.0  0.055230259631490114  0.05492417954228047  0.25585299951514884  1.0000
  H   H21       1.0  0.7111423692721154  0.9918324753919715  0.23809605573893147  1.0000
  H   H22       1.0  0.2888576307099954  0.49183247511835987  0.26190394388498656  1.0000
  H   H23       1.0  0.2888576313237046  0.008167524639883657  0.7619039452147004  1.0000
  H   H24       1.0  0.7111423682241512  0.5081675249134954  0.7380960555435676  1.0000
  H   H25       1.0  0.6738634336465715  0.005384126869994726  0.4966348353256781  1.0000
  H   H26       1.0  0.3261365663355392  0.5053841271436065  0.0033651642982398897  1.0000
  H   H27       1.0  0.32613656693082604  0.9946158731618606  0.5033651641498242  1.0000
  H   H28       1.0  0.6738634342418584  0.4946158728882488  0.9966348351772624  1.0000
  H   H29       1.0  0.9555870232827621  0.07778620901591006  0.6868937650250208  1.0000
  H   H30       1.0  0.04441297790834462  0.5777862087741535  0.8131062357801956  1.0000
  H   H31       1.0  0.044412977313057794  0.9222137910159453  0.3131062359286112  1.0000
  H   H32       1.0  0.9555870226874753  0.4222137912577017  0.18689376517343634  1.0000
  H   H33       1.0  0.1807674337041412  0.11139744215741633  0.5552268749306974  1.0000
  H   H34       1.0  0.8192325658437146  0.6113974424310281  0.9447731258275707  1.0000
  H   H35       1.0  0.8192325652300054  0.888602557874439  0.4447731244978568  1.0000
  H   H36       1.0  0.18076743475210538  0.3886025576008272  0.05522687512606126  1.0000
  H   H37       1.0  0.8434209918399325  0.10242307965646331  0.36253410522450813  1.0000
  H   H38       1.0  0.15657900814217834  0.602423079930075  0.13746589439940982  1.0000
  H   H39       1.0  0.1565790087374652  0.8975769203753919  0.6374658942509943  1.0000
  H   H40       1.0  0.8434209907919682  0.3975769201017802  0.8625341050291443  1.0000
  C   C1        1.0  0.33045982884631164  0.39602246328414825  0.5734008614427294  1.0000
  C   C2        1.0  0.6695401706831218  0.8960224630423917  0.9265991378374091  1.0000
  C   C3        1.0  0.6695401717310859  0.6039775367477069  0.426599138032773  1.0000
  C   C4        1.0  0.3304598282510248  0.1039775369894635  0.07340086159114498  1.0000
  C   C5        1.0  0.229458695965327  0.3308622100829072  0.6091402788572269  1.0000
  C   C6        1.0  0.7705413035641064  0.8308622103565191  0.8908597204229116  1.0000
  C   C7        1.0  0.7705413046120706  0.669137789948948  0.39085972061827545  1.0000
  C   C8        1.0  0.22945869537004018  0.16913778967533627  0.1091402790056426  1.0000
  C   C9        1.0  0.334615416162976  0.2699089945147307  0.5732261536930375  1.0000
  C   C10       1.0  0.6653845850097084  0.7699089947883424  0.9267738456340493  1.0000
  C   C11       1.0  0.6653845844144216  0.7300910055171246  0.42677384578246486  1.0000
  C   C12       1.0  0.3346154155676892  0.23009100524351284  0.0732261538414531  1.0000
  C   C13       1.0  0.5468587663020092  0.27092006817624475  0.49866837709720746  1.0000
  C   C14       1.0  0.45314123368010156  0.7709200684498566  0.0013316225267105168  1.0000
  C   C15       1.0  0.4531412342753884  0.7290799318556105  0.5013316223782949  1.0000
  C   C16       1.0  0.546858766897296  0.22907993158199874  0.9986683769487918  1.0000
  C   C17       1.0  0.6490486165509614  0.334188152504766  0.4560714320273124  1.0000
  C   C18       1.0  0.3509513834311494  0.8341881527783778  0.04392856759660565  1.0000
  C   C19       1.0  0.3509513840448586  0.6658118475270893  0.5439285689263196  1.0000
  C   C20       1.0  0.6490486171462483  0.1658118472534775  0.9560714318788968  1.0000
  C   C21       1.0  0.5435466998044953  0.3954641988697181  0.4908831653321071  1.0000
  C   C22       1.0  0.4564533001776155  0.8954641986279616  0.009116834291810923  1.0000
  C   C23       1.0  0.4564533007729023  0.6045358011621371  0.5091168341433954  1.0000
  C   C24       1.0  0.543546698756531  0.10453580140389365  0.9908831651367432  1.0000
  C   C25       1.0  0.7950158857883898  0.9969027105275433  0.3838100808757731  1.0000
  C   C26       1.0  0.20498411585539433  0.49690271076929976  0.1161899202732226  1.0000
  C   C27       1.0  0.20498411480743012  0.0030972895043120292  0.6161899200778588  1.0000
  C   C28       1.0  0.7950158847404256  0.5030972892625556  0.8838100806804092  1.0000
  C   C29       1.0  0.07051304517644523  0.06721396786051663  0.570021727424054  1.0000
  C   C30       1.0  0.9294869543529881  0.5672139676187602  0.9299782718560846  1.0000
  C   C31       1.0  0.9294869537577014  0.9327860321713386  0.42997827200450023  1.0000
  C   C32       1.0  0.07051304622440942  0.43278603241309516  0.07002172761941776  1.0000
  N   N1        1.0  0.6576422213548027  0.20835523423599644  0.46780323729191636  1.0000
  N   N2        1.0  0.342357778627308  0.7083552339942399  0.032196762332001576  1.0000
  N   N3        1.0  0.3423577792225949  0.7916447657958589  0.532196762183586  1.0000
  N   N4        1.0  0.6576422203068386  0.29164476603761536  0.9678032370965525  1.0000
  N   N5        1.0  0.9397645408891048  0.05858351214105541  0.3802577735850938  1.0000
  N   N6        1.0  0.06023545911142834  0.5585835124146672  0.11974222751695375  1.0000
  N   N7        1.0  0.06023545806346415  0.9414164878907999  0.61974222732159  1.0000
  N   N8        1.0  0.9397645414843915  0.4414164876171881  0.8802577734366781  1.0000
  O   O1        1.0  0.8534025711944869  0.20954906263379194  0.4124723890526355  1.0000
  O   O2        1.0  0.14659742878762372  0.7095490623920354  0.0875276105712825  1.0000
  O   O3        1.0  0.14659742938291057  0.7904509373980633  0.5875276104228669  1.0000
  O   O4        1.0  0.8534025717897739  0.29045093763981983  0.9124723889042198  1.0000
  O   O5        1.0  0.5616509402075098  0.15167195287324622  0.4957072594321923  1.0000
  O   O6        1.0  0.4383490597746009  0.6516719531468581  0.004292740191725627  1.0000
  O   O7        1.0  0.43834905872663676  0.848328047158609  0.5042927399963617  1.0000
  O   O8        1.0  0.5616509408027966  0.34832804688499724  0.9957072592837768  1.0000
  O   O9        1.0  0.23253997923884207  0.45349907522141863  0.6140260011537324  1.0000
  O   O10       1.0  0.7674600219522647  0.9534990754950304  0.8859739996514838  1.0000
  O   O11       1.0  0.767460021356978  0.5465009248104366  0.3859739997998995  1.0000
  O   O12       1.0  0.2325399786251329  0.046500924536824854  0.11402599982401847  1.0000
