data_image0
_chemical_formula_structural       H40C48N10O4S4Cl2
_chemical_formula_sum              "H40 C48 N10 O4 S4 Cl2"
_cell_length_a       11.941056997677169
_cell_length_b       5.528749598215148
_cell_length_c       17.684623312387213
_cell_angle_alpha    90.0
_cell_angle_beta     106.14753241160419
_cell_angle_gamma    90.0

_space_group_name_H-M_alt    "P 1"
_space_group_IT_number       1

loop_
  _space_group_symop_operation_xyz
  'x, y, z'

loop_
  _atom_site_type_symbol
  _atom_site_label
  _atom_site_symmetry_multiplicity
  _atom_site_fract_x
  _atom_site_fract_y
  _atom_site_fract_z
  _atom_site_occupancy
  H   H1        1.0  0.21687051264232687  0.6336093013022147  0.24767247153420377  1.0000
  H   H2        1.0  0.7831294876727746  0.13360930114079914  0.7523275285002906  1.0000
  H   H3        1.0  0.19606000770338491  0.280247428912353  0.1532905584695209  1.0000
  H   H4        1.0  0.8039399917728126  0.7802474290737685  0.8467094415613979  1.0000
  H   H5        1.0  0.027317958577110578  0.00023150442559619652  0.14041089731386286  1.0000
  H   H6        1.0  0.9726820408990868  0.5002315045870117  0.8595891027170559  1.0000
  H   H7        1.0  0.2592462952327467  0.20005821575950453  0.7793313685576173  1.0000
  H   H8        1.0  0.7407537050823548  0.70005821592092  0.22066863147687707  1.0000
  H   H9        1.0  0.16418524098214807  0.4441527286373662  0.779874908259024  1.0000
  H   H10       1.0  0.8358147584940493  0.9441527287987818  0.22012509177189485  1.0000
  H   H11       1.0  0.4912957726452521  0.973169159575786  0.9528891088490715  1.0000
  H   H12       1.0  0.5087042276698495  0.47316915941437043  0.047110891185422915  1.0000
  H   H13       1.0  0.6383208263698431  0.2375151933854862  0.8706727445185163  1.0000
  H   H14       1.0  0.3616791739452585  0.7375151935469016  0.12932725551597815  1.0000
  H   H15       1.0  0.8506817477398062  0.15892464912566434  0.9249554920057532  1.0000
  H   H16       1.0  0.14931825257529543  0.6589246492870799  0.07504450802874119  1.0000
  H   H17       1.0  0.9753810166031676  0.44535987138844224  0.0209980306690402  1.0000
  H   H18       1.0  0.024618983711933953  0.9453598715498579  0.9790019693654542  1.0000
  H   H19       1.0  0.8848765024944467  0.8176790085518498  0.060006063933679805  1.0000
  H   H20       1.0  0.11512349782065487  0.3176790083904343  0.9399939361008146  1.0000
  H   H21       1.0  0.6765077981623576  0.8965900954530986  0.005660779353662512  1.0000
  H   H22       1.0  0.32349220131383977  0.39659009529168304  0.9943392206772563  1.0000
  H   H23       1.0  0.7886607859874649  0.5972486131522398  0.5995422547091938  1.0000
  H   H24       1.0  0.21133921348873255  0.09724861299082427  0.4004577453217251  1.0000
  H   H25       1.0  0.9319875226599303  0.48199464502069134  0.5378999128907561  1.0000
  H   H26       1.0  0.06801247765517106  0.9819946451821068  0.4621000871437382  1.0000
  H   H27       1.0  0.9458291522971232  0.6431102343914901  0.4519011354150564  1.0000
  H   H28       1.0  0.054170848017978286  0.1431102342300745  0.548098864619438  1.0000
  H   H29       1.0  0.6023018255090977  0.21033967976690882  0.4715859671032685  1.0000
  H   H30       1.0  0.3976981739670997  0.7103396799283244  0.5284140329276503  1.0000
  H   H31       1.0  0.5197255075263283  0.244506007368539  0.5729659899518008  1.0000
  H   H32       1.0  0.48027449278877327  0.7445060075299545  0.42703401008269365  1.0000
  H   H33       1.0  0.4018933123360319  0.22908376975670605  0.666868856077342  1.0000
  H   H34       1.0  0.5981066879790695  0.7290837699181216  0.33313114395715226  1.0000
  H   H35       1.0  0.4148290171617726  0.8745802091599512  0.7560154105551262  1.0000
  H   H36       1.0  0.5851709831533289  0.37458020899853567  0.24398458947936827  1.0000
  H   H37       1.0  0.5454661574701963  0.5316423176316221  0.7479432293129772  1.0000
  H   H38       1.0  0.4545338428449052  0.03164231747020644  0.25205677072151716  1.0000
  H   H39       1.0  0.6649565866663845  0.5438587815535555  0.6551980898220903  1.0000
  H   H40       1.0  0.33504341280981303  0.043858781392139994  0.3448019102088286  1.0000
  C   C1        1.0  0.08833130669555415  0.7460680496963764  0.34231601231610037  1.0000
  C   C2        1.0  0.9116686927806434  0.24606804953496086  0.6576839877148185  1.0000
  C   C3        1.0  0.9754242317877755  0.3673983409658762  0.2711911874048939  1.0000
  C   C4        1.0  0.024575768527326097  0.8673983411272917  0.7288088126296005  1.0000
  C   C5        1.0  0.06634292752235962  0.5380810302858344  0.2841192674896572  1.0000
  C   C6        1.0  0.9336570719538377  0.038081030124418914  0.7158807325412616  1.0000
  C   C7        1.0  0.14554581621962556  0.5045132032929257  0.23927036750916125  1.0000
  C   C8        1.0  0.8544541840954761  0.004513203131510134  0.7607296325253332  1.0000
  C   C9        1.0  0.1338377598193355  0.31191728425478454  0.18704482328910899  1.0000
  C   C10       1.0  0.8661622396568619  0.8119172844162  0.8129551767418097  1.0000
  C   C11       1.0  0.040367176134836286  0.15527066378212087  0.17995457659618952  1.0000
  C   C12       1.0  0.9596328233413611  0.6552706639435364  0.8200454234347292  1.0000
  C   C13       1.0  0.33612062232909173  0.5038582722030516  0.8362379690986517  1.0000
  C   C14       1.0  0.6638793771471058  0.0038582738503632804  0.1637620309322671  1.0000
  C   C15       1.0  0.5159119157481233  0.6121709746255527  0.903834412454959  1.0000
  C   C16       1.0  0.48408808456697827  0.11217097446413718  0.09616558757953543  1.0000
  C   C17       1.0  0.4572680642170563  0.8113126214737728  0.9199597659541648  1.0000
  C   C18       1.0  0.5427319352591411  0.3113126213123573  0.08004023407675392  1.0000
  C   C19       1.0  0.6420301110947332  0.5722517603295662  0.9336147484657183  1.0000
  C   C20       1.0  0.3579698892203684  0.07225176016815063  0.06638525156877598  1.0000
  C   C21       1.0  0.6936995353226522  0.36517072877595613  0.9113562345161104  1.0000
  C   C22       1.0  0.3063004641535452  0.8651707289373717  0.08864376551480842  1.0000
  C   C23       1.0  0.8127266442205988  0.32164684770207214  0.9423639442316946  1.0000
  C   C24       1.0  0.18727335609450269  0.8216468478634876  0.057636055802799895  1.0000
  C   C25       1.0  0.8827292450718884  0.482488557785502  0.9960856751512126  1.0000
  C   C26       1.0  0.1172707552432131  0.9824885579469176  0.00391432488328179  1.0000
  C   C27       1.0  0.8322402235068583  0.6898686822842028  0.01792411165422899  1.0000
  C   C28       1.0  0.1677597768082433  0.18986868212278732  0.9820758883802656  1.0000
  C   C29       1.0  0.7136449343018527  0.7347697065736989  0.9870448020124656  1.0000
  C   C30       1.0  0.2863550660132488  0.23476970641228337  0.012955198022028769  1.0000
  C   C31       1.0  0.8187969017805122  0.7615211930305548  0.5005727923305899  1.0000
  C   C32       1.0  0.18120309853458935  0.2615211928691393  0.4994272077039045  1.0000
  C   C33       1.0  0.6728510679860228  0.9052725631878459  0.5511948991650206  1.0000
  C   C34       1.0  0.32714893149017454  0.40527256302643033  0.44880510086589814  1.0000
  C   C35       1.0  0.6642687399035787  0.0644887137075448  0.49080619356338956  1.0000
  C   C36       1.0  0.3357312595726188  0.5644887138689604  0.5091938064675292  1.0000
  C   C37       1.0  0.6015253997411412  0.8949851303805505  0.6063497569808647  1.0000
  C   C38       1.0  0.39847460057396034  0.3949851302191349  0.39365024305362967  1.0000
  C   C39       1.0  0.5254773794438059  0.08606068723995126  0.6104212570383588  1.0000
  C   C40       1.0  0.47452262003239154  0.5860606874013667  0.38957874299256  1.0000
  C   C41       1.0  0.45853405988889867  0.07742139925059832  0.6635111860099148  1.0000
  C   C42       1.0  0.5414659404262029  0.5774213994120139  0.33648881402457964  1.0000
  C   C43       1.0  0.46557184866946155  0.8785519535136996  0.7135053096019719  1.0000
  C   C44       1.0  0.53442815164564  0.3785519533522841  0.2864946904325225  1.0000
  C   C45       1.0  0.5398566921400554  0.6873849109076816  0.7093975259644948  1.0000
  C   C46       1.0  0.4601433081750462  0.1873849107462661  0.2906024740699996  1.0000
  C   C47       1.0  0.6071381095054036  0.6948398678139062  0.6564414923999248  1.0000
  C   C48       1.0  0.39286189080969797  0.19483986765249062  0.3435585076345697  1.0000
  N   N1        1.0  0.9621693313228118  0.18323147069764942  0.2208898123996798  1.0000
  N   N2        1.0  0.03783066899228956  0.683231470859065  0.7791101876348145  1.0000
  N   N3        1.0  0.446398916181132  0.43838236059423774  0.8563039872321098  1.0000
  N   N4        1.0  0.5536010832950655  0.9383823607556533  0.1436960127988091  1.0000
  N   N5        1.0  0.24697759475799666  0.3775607473114518  0.7889616627167514  1.0000
  N   N6        1.0  0.7530224055571049  0.8775607474728673  0.21103833731774296  1.0000
  N   N7        1.0  0.7608640789762434  0.7357373032978709  0.5553988778815614  1.0000
  N   N8        1.0  0.23913592049995397  0.23573730313645536  0.4446011221493575  1.0000
  N   N9        1.0  0.9054081851450976  0.618976001572721  0.4957777706286152  1.0000
  N   N10       1.0  0.09459181517000394  0.11897600141130547  0.5042222294058792  1.0000
  O   O1        1.0  0.0289630152956648  0.7645958665526634  0.39155915208890446  1.0000
  O   O2        1.0  0.9710369850194367  0.26459586639124777  0.60844084794559  1.0000
  O   O3        1.0  0.1688814118685631  0.8903401705132614  0.33781391714295633  1.0000
  O   O4        1.0  0.8311185884465384  0.39034017035184587  0.662186082891538  1.0000
  S   S1        1.0  0.30989049476776076  0.7839031236645535  0.8764816899292359  1.0000
  S   S2        1.0  0.6901095047084367  0.28390312350313807  0.12351831010168286  1.0000
  S   S3        1.0  0.764842721175998  0.004686694439618871  0.4393330700054287  1.0000
  S   S4        1.0  0.23515727913910342  0.5046866946010344  0.5606669300290658  1.0000
  Cl  Cl1       1.0  0.8685066740783319  0.3792717074177032  0.3203761394436461  1.0000
  Cl  Cl2       1.0  0.13149332623676957  0.8792717075791188  0.6796238605908482  1.0000
