data_image0
_chemical_formula_structural       H68C116N12O4F16I8
_chemical_formula_sum              "H68 C116 N12 O4 F16 I8"
_cell_length_a       11.505877887879679
_cell_length_b       30.368304889973025
_cell_length_c       7.414368733000316
_cell_angle_alpha    90.0
_cell_angle_beta     101.68179000297404
_cell_angle_gamma    90.0

_space_group_name_H-M_alt    "P 1"
_space_group_IT_number       1

loop_
  _space_group_symop_operation_xyz
  'x, y, z'

loop_
  _atom_site_type_symbol
  _atom_site_label
  _atom_site_symmetry_multiplicity
  _atom_site_fract_x
  _atom_site_fract_y
  _atom_site_fract_z
  _atom_site_occupancy
  H   H1        1.0  0.31778951630483027  0.4078364816499641  0.2796955237668252  1.0000
  H   H2        1.0  0.682210483687829  0.4078364816499641  0.22030447666774425  1.0000
  H   H3        1.0  0.8177895161798131  0.9078364818150535  0.27969552423899213  1.0000
  H   H4        1.0  0.18221048381284616  0.9078364818150535  0.22030447619557733  1.0000
  H   H5        1.0  0.6822104839305226  0.5921635183509241  0.7203044761579799  1.0000
  H   H6        1.0  0.31778951654752396  0.5921635183509241  0.7796955232570609  1.0000
  H   H7        1.0  0.18221048405553983  0.09216351818583464  0.720304475685813  1.0000
  H   H8        1.0  0.8177895164225069  0.09216351818583464  0.7796955237292277  1.0000
  H   H9        1.0  0.49999999999632966  0.3664779348179774  0.25000000021728475  1.0000
  H   H10       1.0  1.2134683703033026e-10  0.8664779349830669  0.24999999974511783  1.0000
  H   H11       1.0  0.5000000002390234  0.6335220651829108  0.7499999997075204  1.0000
  H   H12       1.0  0.9999999996829797  0.13352206501782132  0.7500000006235211  1.0000
  H   H13       1.0  0.30861371448850244  0.552472772213889  0.22603531610673738  1.0000
  H   H14       1.0  0.6913862853175531  0.552472772213889  0.2739646829506163  1.0000
  H   H15       1.0  0.8086137152311498  0.05247277237809026  0.2260353165679524  1.0000
  H   H16       1.0  0.1913862847615095  0.05247277237809026  0.2739646838666171  1.0000
  H   H17       1.0  0.691386284879186  0.44752722778699916  0.7739646838290196  1.0000
  H   H18       1.0  0.3086137149177999  0.44752722778699916  0.7260353169741889  1.0000
  H   H19       1.0  0.19138628500420318  0.9475272276227978  0.7739646833568528  1.0000
  H   H20       1.0  0.8086137146061789  0.9475272276227978  0.72603531606914  1.0000
  H   H21       1.0  0.3176189923625881  0.48810023620693327  0.2865947485029133  1.0000
  H   H22       1.0  0.6823810076300711  0.48810023620693327  0.21340525193165627  1.0000
  H   H23       1.0  0.8176189920509671  0.9881002363720227  0.2865947475978643  1.0000
  H   H24       1.0  0.18238100775508842  0.9881002363720227  0.21340525145948933  1.0000
  H   H25       1.0  0.6823810078727649  0.511899763793955  0.7134052514218919  1.0000
  H   H26       1.0  0.31761899173761715  0.511899763793955  0.7865947480041008  1.0000
  H   H27       1.0  0.18238100818438588  0.011899763628865521  0.7134052523269409  1.0000
  H   H28       1.0  0.8176189924802645  0.011899763628865521  0.7865947484653159  1.0000
  H   H29       1.0  0.31940691553968664  0.6340970732402674  0.2411804384371703  1.0000
  H   H30       1.0  0.6805930844529726  0.6340970732402674  0.2588195619973992  1.0000
  H   H31       1.0  0.8194069152280657  0.13409707307517804  0.2411804375321214  1.0000
  H   H32       1.0  0.18059308457798984  0.13409707307517804  0.2588195615252323  1.0000
  H   H33       1.0  0.6805930846956663  0.3659029267606207  0.7588195614876347  1.0000
  H   H34       1.0  0.31940691578238034  0.3659029267606207  0.741180437927406  1.0000
  H   H35       1.0  0.1805930841396227  0.8659029269257101  0.7588195624036356  1.0000
  H   H36       1.0  0.8194069156573631  0.8659029269257101  0.7411804383995729  1.0000
  H   H37       1.0  0.697023831824738  0.03968274832481341  0.46769375885426967  1.0000
  H   H38       1.0  0.3029761679813175  0.03968274832481341  0.032306240203083966  1.0000
  H   H39       1.0  0.19702383213635896  0.5396827481606121  0.4676937597593186  1.0000
  H   H40       1.0  0.8029761678563003  0.5396827481606121  0.03230624067525088  1.0000
  H   H41       1.0  0.302976168410615  0.9603172516760747  0.5323062410705355  1.0000
  H   H42       1.0  0.6970238322540355  0.9603172516760747  0.9676937597217212  1.0000
  H   H43       1.0  0.8029761680989941  0.46031725184027605  0.5323062401654866  1.0000
  H   H44       1.0  0.19702383237905266  0.46031725184027605  0.9676937592495543  1.0000
  H   H45       1.0  0.6973081674967165  0.882646051438  0.4656139552669236  1.0000
  H   H46       1.0  0.3026918324959428  0.882646051438  0.03438604516764584  1.0000
  H   H47       1.0  0.19730816762173373  0.38264605127291057  0.4656139547947567  1.0000
  H   H48       1.0  0.8026918323709255  0.38264605127291057  0.034386045639812755  1.0000
  H   H49       1.0  0.3026918327386364  0.11735394856288817  0.5343860446578815  1.0000
  H   H50       1.0  0.6973081677394102  0.11735394856288817  0.9656139547571594  1.0000
  H   H51       1.0  0.8026918326136193  0.6173539487279776  0.5343860451300484  1.0000
  H   H52       1.0  0.19730816699676285  0.6173539487279776  0.9656139542959443  1.0000
  H   H53       1.0  0.5980862527866724  0.8120853073410349  0.35926289897431435  1.0000
  H   H54       1.0  0.4019137470193832  0.8120853073410349  0.14073710008303936  1.0000
  H   H55       1.0  0.09808625309829336  0.31208530750523616  0.3592628998793633  1.0000
  H   H56       1.0  0.901913746894366  0.31208530750523616  0.14073710055520625  1.0000
  H   H57       1.0  0.4019137474486806  0.18791469265985325  0.6407371009504907  1.0000
  H   H58       1.0  0.5980862532159699  0.18791469265985325  0.8592628998417658  1.0000
  H   H59       1.0  0.9019137471370597  0.6879146924956521  0.6407371000454419  1.0000
  H   H60       1.0  0.09808625247332246  0.6879146924956521  0.8592628993805508  1.0000
  H   H61       1.0  0.597439592601718  0.11038425826351671  0.359953370983727  1.0000
  H   H62       1.0  0.4025604073909413  0.11038425826351671  0.1400466294508425  1.0000
  H   H63       1.0  0.09743959272673519  0.6103842580993155  0.35995337051156  1.0000
  H   H64       1.0  0.9025604070793204  0.6103842580993155  0.14004662854579358  1.0000
  H   H65       1.0  0.402560407633635  0.8896157417373715  0.6400466289410781  1.0000
  H   H66       1.0  0.5974395928444117  0.8896157417373715  0.8599533704739626  1.0000
  H   H67       1.0  0.9025604075086177  0.3896157419015727  0.6400466294132451  1.0000
  H   H68       1.0  0.09743959315603266  0.3896157419015727  0.8599533713790116  1.0000
  C   C1        1.0  0.6949843660615239  0.7350688094339607  0.8210868592261078  1.0000
  C   C2        1.0  0.3050156337354619  0.7350688094339607  0.6789131415771007  1.0000
  C   C3        1.0  0.19498436618654114  0.23506880959816195  0.8210868587539409  1.0000
  C   C4        1.0  0.8050156342915056  0.23506880959816195  0.6789131406610999  1.0000
  C   C5        1.0  0.30501563417382904  0.2649311905669275  0.17891314069869732  1.0000
  C   C6        1.0  0.6949843656322264  0.2649311905669275  0.3210868583586563  1.0000
  C   C7        1.0  0.8050156340488118  0.7649311904027262  0.17891314117086424  1.0000
  C   C8        1.0  0.19498436594384747  0.7649311904027262  0.3210868592637052  1.0000
  C   C9        1.0  0.7056693972215522  0.7797773703799584  0.8631320479451395  1.0000
  C   C10       1.0  0.29433060325649446  0.7797773703799584  0.6368679514699014  1.0000
  C   C11       1.0  0.20566939666550857  0.2797773705441597  0.8631320488611403  1.0000
  C   C12       1.0  0.7943306031314773  0.2797773705441597  0.6368679519420682  1.0000
  C   C13       1.0  0.29433060301380076  0.22022262962092976  0.1368679519796657  1.0000
  C   C14       1.0  0.7056693969788586  0.22022262962092976  0.36313204845490377  1.0000
  C   C15       1.0  0.7943306027021798  0.7202226294567285  0.1368679510746168  1.0000
  C   C16       1.0  0.20566939710387566  0.7202226294567285  0.36313204798273685  1.0000
  C   C17       1.0  0.7400271335654153  0.7055892134129266  0.9622060770083115  1.0000
  C   C18       1.0  0.25997286623157045  0.7055892134129266  0.5377939237948971  1.0000
  C   C19       1.0  0.2400271336904326  0.20558921324783713  0.9622060765361445  1.0000
  C   C20       1.0  0.7599728661065533  0.20558921324783713  0.537793924267064  1.0000
  C   C21       1.0  0.259972865802273  0.2944107865879616  0.037793922927445586  1.0000
  C   C22       1.0  0.7400271340037825  0.2944107865879616  0.4622060761299081  1.0000
  C   C23       1.0  0.7599728665449204  0.7944107867530511  0.03779392338866061  1.0000
  C   C24       1.0  0.2400271334477389  0.7944107867530511  0.4622060770459088  1.0000
  C   C25       1.0  0.39783617896365664  0.4255195476605832  0.2660378414135032  1.0000
  C   C26       1.0  0.602163820842399  0.4255195476605832  0.23396215764385053  1.0000
  C   C27       1.0  0.8978361788386394  0.9255195478256727  0.26603784188567003  1.0000
  C   C28       1.0  0.10216382115401992  0.9255195478256727  0.23396215854889943  1.0000
  C   C29       1.0  0.6021638212716964  0.574480452340305  0.733962158511302  1.0000
  C   C30       1.0  0.397836179392954  0.574480452340305  0.7660378422809547  1.0000
  C   C31       1.0  0.10216382139671362  0.07448045217521554  0.7339621580391351  1.0000
  C   C32       1.0  0.8978361790813331  0.07448045217521554  0.7660378413759057  1.0000
  C   C33       1.0  0.49999999999632966  0.4023429201685301  0.25000000021728475  1.0000
  C   C34       1.0  1.2134683703033026e-10  0.9023429203336195  0.24999999974511783  1.0000
  C   C35       1.0  0.5000000002390234  0.597657079832358  0.7499999997075204  1.0000
  C   C36       1.0  0.9999999996829797  0.09765707966726865  0.7500000006235211  1.0000
  C   C37       1.0  0.49999999999632966  0.5436204361689897  0.25000000021728475  1.0000
  C   C38       1.0  1.2134683703033026e-10  0.04362043633319095  0.24999999974511783  1.0000
  C   C39       1.0  0.5000000002390234  0.4563795638318985  0.7499999997075204  1.0000
  C   C40       1.0  0.9999999996829797  0.9563795636676973  0.7500000006235211  1.0000
  C   C41       1.0  0.3949434414263507  0.5681637062889527  0.23951115944924725  1.0000
  C   C42       1.0  0.6050565594339732  0.5681637062889527  0.26048884097437036  1.0000
  C   C43       1.0  0.8949434411147297  0.06816370612386323  0.23951115854419833  1.0000
  C   C44       1.0  0.1050565586913259  0.06816370612386323  0.26048884051315535  1.0000
  C   C45       1.0  0.6050565588090023  0.4318362937119355  0.7604888404755579  1.0000
  C   C46       1.0  0.39494344080137966  0.4318362937119355  0.7395111589504346  1.0000
  C   C47       1.0  0.10505655912062332  0.9318362938770249  0.7604888413806068  1.0000
  C   C48       1.0  0.8949434406763624  0.9318362938770249  0.7395111594226016  1.0000
  C   C49       1.0  0.49999999999632966  0.4951803584191872  0.25000000021728475  1.0000
  C   C50       1.0  1.2134683703033026e-10  0.9951803585842767  0.24999999974511783  1.0000
  C   C51       1.0  0.5000000002390234  0.504819641581701  0.7499999997075204  1.0000
  C   C52       1.0  0.9999999996829797  0.004819641416611516  0.7500000006235211  1.0000
  C   C53       1.0  0.3978570636647791  0.4713375323996463  0.267360645891336  1.0000
  C   C54       1.0  0.6021429363278802  0.4713375323996463  0.23263935454323345  1.0000
  C   C55       1.0  0.8978570644074265  0.9713375325647358  0.2673606463525511  1.0000
  C   C56       1.0  0.10214293558523281  0.9713375325647358  0.23263935408201844  1.0000
  C   C57       1.0  0.6021429357029092  0.5286624676012419  0.732639354044421  1.0000
  C   C58       1.0  0.3978570639074728  0.5286624676012419  0.7673606453815717  1.0000
  C   C59       1.0  0.10214293601453028  0.028662467436152413  0.73263935494947  1.0000
  C   C60       1.0  0.8978570637824556  0.028662467436152413  0.7673606458537386  1.0000
  C   C61       1.0  0.3968675946942692  0.613521965993952  0.2433455218624789  1.0000
  C   C62       1.0  0.6031324052983902  0.613521965993952  0.25665447857209056  1.0000
  C   C63       1.0  0.8968675954369166  0.11352196615815333  0.2433455223236939  1.0000
  C   C64       1.0  0.10313240455574278  0.11352196615815333  0.25665447811087555  1.0000
  C   C65       1.0  0.6031324046734192  0.3864780340069361  0.7566544780732781  1.0000
  C   C66       1.0  0.3968675949369628  0.3864780340069361  0.7433455213527146  1.0000
  C   C67       1.0  0.10313240479843647  0.8864780338427348  0.7566544776011112  1.0000
  C   C68       1.0  0.8968675948119454  0.8864780338427348  0.7433455218248815  1.0000
  C   C69       1.0  0.6117981822239208  0.04017914909708626  0.37138240560263425  1.0000
  C   C70       1.0  0.38820181758213457  0.04017914909708626  0.12861759345471946  1.0000
  C   C71       1.0  0.11179818253554187  0.5401791492621757  0.3713824065076831  1.0000
  C   C72       1.0  0.8882018174571173  0.5401791492621757  0.12861759392688635  1.0000
  C   C73       1.0  0.3882018180114321  0.9598208509038019  0.6286175943221709  1.0000
  C   C74       1.0  0.6117981817855538  0.9598208509038019  0.8713824064810376  1.0000
  C   C75       1.0  0.8882018176998111  0.4598208507387125  0.628617593417122  1.0000
  C   C76       1.0  0.111798181910571  0.4598208507387125  0.8713824060088707  1.0000
  C   C77       1.0  0.6114727759735802  0.8822662475588638  0.3714392870807023  1.0000
  C   C78       1.0  0.38852722401907913  0.8822662475588638  0.1285607133538672  1.0000
  C   C79       1.0  0.1114727760985974  0.3822662477230651  0.3714392866085353  1.0000
  C   C80       1.0  0.8885272238940618  0.3822662477230651  0.1285607138260341  1.0000
  C   C81       1.0  0.3885272244483765  0.11773375244202429  0.6285607142213187  1.0000
  C   C82       1.0  0.6114727762162739  0.11773375244202429  0.8714392865709379  1.0000
  C   C83       1.0  0.8885272241367557  0.617733752277823  0.6285607133162698  1.0000
  C   C84       1.0  0.11147277547362652  0.617733752277823  0.8714392861097229  1.0000
  C   C85       1.0  0.5576164124109733  0.9989966720209303  0.31163000183104855  1.0000
  C   C86       1.0  0.4423835875816861  0.9989966720209303  0.188369998603521  1.0000
  C   C87       1.0  0.057616412535990404  0.4989966721851316  0.3116300013588816  1.0000
  C   C88       1.0  0.9423835872700651  0.4989966721851316  0.1883699976984721  1.0000
  C   C89       1.0  0.4423835878243798  0.0010033279799578256  0.6883699980937567  1.0000
  C   C90       1.0  0.5576164117860023  0.0010033279799578256  0.811630001332236  1.0000
  C   C91       1.0  0.9423835876993626  0.5010033278157566  0.6883699985659235  1.0000
  C   C92       1.0  0.0576164120976233  0.5010033278157566  0.811630002237285  1.0000
  C   C93       1.0  0.557591162220971  0.92339395799661  0.3117370524499359  1.0000
  C   C94       1.0  0.4424088377716882  0.92339395799661  0.18826294798463356  1.0000
  C   C95       1.0  0.0575911623459883  0.42339395816081127  0.311737051977769  1.0000
  C   C96       1.0  0.9424088374600673  0.42339395816081127  0.18826294707958466  1.0000
  C   C97       1.0  0.44240883714671736  0.07660604200427817  0.6882629474858212  1.0000
  C   C98       1.0  0.5575911624636648  0.07660604200427817  0.8117370519401715  1.0000
  C   C99       1.0  0.9424088378893646  0.5766060418400769  0.6882629479470361  1.0000
  C   C100      1.0  0.05759116277528575  0.5766060418400769  0.8117370528452205  1.0000
  C   C101      1.0  0.5560975687055235  0.8433437105821532  0.311660967023323  1.0000
  C   C102      1.0  0.44390243110053196  0.8433437105821532  0.18833903203403068  1.0000
  C   C103      1.0  0.056097569017144515  0.34334371041706374  0.3116609679283719  1.0000
  C   C104      1.0  0.9439024318431793  0.34334371041706374  0.1883390324952457  1.0000
  C   C105      1.0  0.4439024315298294  0.156656289418735  0.6883390329014821  1.0000
  C   C106      1.0  0.5560975682671564  0.156656289418735  0.8116609679017264  1.0000
  C   C107      1.0  0.9439024312182084  0.6566562895838244  0.6883390319964333  1.0000
  C   C108      1.0  0.05609756839217365  0.6566562895838244  0.8116609674295595  1.0000
  C   C109      1.0  0.5561937379598143  0.07905963334794919  0.31170311583166604  1.0000
  C   C110      1.0  0.44380626203284507  0.07905963334794919  0.18829688460290342  1.0000
  C   C111      1.0  0.05619373808483141  0.5790596331837479  0.3117031153594991  1.0000
  C   C112      1.0  0.9438062617212242  0.5790596331837479  0.1882968836978545  1.0000
  C   C113      1.0  0.44380626227553877  0.920940366652939  0.688296884093139  1.0000
  C   C114      1.0  0.5561937382025078  0.920940366652939  0.8117031153219016  1.0000
  C   C115      1.0  0.9438062621505214  0.42094036681714025  0.6882968845653059  1.0000
  C   C116      1.0  0.056193737646464285  0.42094036681714025  0.8117031162379024  1.0000
  N   N1        1.0  0.49999999999632966  0.6358468936596992  0.25000000021728475  1.0000
  N   N2        1.0  1.2134683703033026e-10  0.13584689349460968  0.24999999974511783  1.0000
  N   N3        1.0  0.5000000002390234  0.3641531063411891  0.7499999997075204  1.0000
  N   N4        1.0  0.9999999996829797  0.8641531065062785  0.7500000006235211  1.0000
  N   N5        1.0  0.613632003217561  0.9612249605554434  0.3713660502685709  1.0000
  N   N6        1.0  0.3863679967750983  0.9612249605554434  0.12863395016599855  1.0000
  N   N7        1.0  0.11363200247491363  0.4612249607196446  0.37136604980735594  1.0000
  N   N8        1.0  0.8863679975177458  0.4612249607196446  0.12863395062721358  1.0000
  N   N9        1.0  0.38636799701779195  0.03877503944544485  0.6286339496562342  1.0000
  N   N10       1.0  0.6136320025925901  0.03877503944544485  0.8713660497697584  1.0000
  N   N11       1.0  0.8863679968927748  0.5387750392812437  0.6286339501284011  1.0000
  N   N12       1.0  0.11363200271760729  0.5387750392812437  0.8713660492975914  1.0000
  O   O1        1.0  0.49999999999632966  0.6795293133668986  0.25000000021728475  1.0000
  O   O2        1.0  1.2134683703033026e-10  0.17952931320180915  0.24999999974511783  1.0000
  O   O3        1.0  0.5000000002390234  0.3204706866339896  0.7499999997075204  1.0000
  O   O4        1.0  0.9999999996829797  0.8204706867990791  0.7500000006235211  1.0000
  F   F1        1.0  0.7303665396785602  0.6614395200119397  0.9325046139099099  1.0000
  F   F2        1.0  0.2696334601184256  0.6614395200119397  0.5674953868932985  1.0000
  F   F3        1.0  0.23036653980357746  0.16143951984685023  0.932504613437743  1.0000
  F   F4        1.0  0.7696334598068046  0.16143951984685023  0.5674953859882497  1.0000
  F   F5        1.0  0.26963346055679266  0.3385604799889485  0.06749538601489516  1.0000
  F   F6        1.0  0.7303665392492629  0.3385604799889485  0.4325046130424585  1.0000
  F   F7        1.0  0.7696334604317755  0.8385604801540378  0.06749538648706206  1.0000
  F   F8        1.0  0.2303665395608838  0.8385604801540378  0.4325046139475074  1.0000
  F   F9        1.0  0.6616411750632654  0.8104327728916535  0.7330106247574116  1.0000
  F   F10       1.0  0.3383588245471168  0.8104327728916535  0.766989374668581  1.0000
  F   F11       1.0  0.16164117518828247  0.3104327730558547  0.7330106242852448  1.0000
  F   F12       1.0  0.8383588252897642  0.3104327730558547  0.766989375129796  1.0000
  F   F13       1.0  0.3383588251720877  0.1895672271092347  0.26698937516739346  1.0000
  F   F14       1.0  0.6616411748205716  0.1895672271092347  0.233010625267176  1.0000
  F   F15       1.0  0.8383588250470705  0.6895672269450335  0.2669893756395604  1.0000
  F   F16       1.0  0.1616411749455888  0.6895672269450335  0.23301062479500909  1.0000
  I   I1        1.0  0.6105135928288731  0.7125850892370708  0.5586944053584173  1.0000
  I   I2        1.0  0.389486406781509  0.7125850892370708  0.9413055940675754  1.0000
  I   I3        1.0  0.11051359314049408  0.21258508907198126  0.5586944062634662  1.0000
  I   I4        1.0  0.8894864066564917  0.21258508907198126  0.9413055945397423  1.0000
  I   I5        1.0  0.3894864065388153  0.2874149107638175  0.4413055945773397  1.0000
  I   I6        1.0  0.610513593453844  0.2874149107638175  0.05869440585722972  1.0000
  I   I7        1.0  0.8894864062271943  0.7874149109289069  0.4413055936722909  1.0000
  I   I8        1.0  0.11051359357886117  0.7874149109289069  0.058694405385062806  1.0000
