data_image0
_chemical_formula_structural       H116C100O16P4S4
_chemical_formula_sum              "H116 C100 O16 P4 S4"
_cell_length_a       9.726097773611524
_cell_length_b       17.320567651114736
_cell_length_c       14.18929306472572
_cell_angle_alpha    90.0
_cell_angle_beta     95.02147961916285
_cell_angle_gamma    90.0

_space_group_name_H-M_alt    "P 1"
_space_group_IT_number       1

loop_
  _space_group_symop_operation_xyz
  'x, y, z'

loop_
  _atom_site_type_symbol
  _atom_site_label
  _atom_site_symmetry_multiplicity
  _atom_site_fract_x
  _atom_site_fract_y
  _atom_site_fract_z
  _atom_site_occupancy
  H   H1        1.0  0.6585731967823442  0.17292902925195006  0.025545568985680618  1.0000
  H   H2        1.0  0.8414268037547425  0.6729290289310963  0.47445443121054126  1.0000
  H   H3        1.0  0.3414268028934213  0.8270709712610391  0.9744544312613921  1.0000
  H   H4        1.0  0.15857319687131555  0.3270709710045445  0.5255455683370296  1.0000
  H   H5        1.0  0.6307290868588322  0.22617436096257937  0.8627831908532728  1.0000
  H   H6        1.0  0.869270913090554  0.726174361219074  0.6372168088138714  1.0000
  H   H7        1.0  0.3692709127381167  0.7738256389730616  0.13721680868637218  1.0000
  H   H8        1.0  0.13072908753550402  0.2738256387165669  0.36278319073369947  1.0000
  H   H9        1.0  0.8305176396735999  0.22815138623621678  0.7644796960329823  1.0000
  H   H10       1.0  0.6694823603546031  0.7281513864927114  0.7355203043415897  1.0000
  H   H11       1.0  0.16948236000216568  0.7718486136994241  0.23552030421409043  1.0000
  H   H12       1.0  0.33051764035027165  0.27184861344292954  0.2644796959134088  1.0000
  H   H13       1.0  0.057974910802952875  0.17716572527012459  0.8308368727262097  1.0000
  H   H14       1.0  0.442025088961784  0.6771657255266191  0.6691631268722119  1.0000
  H   H15       1.0  0.942025088793996  0.8228342746655164  0.16916312681343523  1.0000
  H   H16       1.0  0.557974911664274  0.32283427440902174  0.330836872675359  1.0000
  H   H17       1.0  0.0848051343894297  0.12295742223338361  0.9912505606118143  1.0000
  H   H18       1.0  0.4151948654541239  0.6229574219125299  0.508749439694035  1.0000
  H   H19       1.0  0.9151948652863358  0.8770425777022574  0.00874943963525836  1.0000
  H   H20       1.0  0.5848051342216417  0.377042578023111  0.4912505605530377  1.0000
  H   H21       1.0  0.11249212990306041  0.21007139680932027  0.14182443394903843  1.0000
  H   H22       1.0  0.3875078704493769  0.7100713970658148  0.3581755661784608  1.0000
  H   H23       1.0  0.8875078708018144  0.7899286031263206  0.8581755663059601  1.0000
  H   H24       1.0  0.6124921292263886  0.289928602869826  0.6418244340686119  1.0000
  H   H25       1.0  0.3596069121797629  0.17790111802725397  0.1746551257153772  1.0000
  H   H26       1.0  0.14039308714356527  0.6779011177064004  0.3253448744041962  1.0000
  H   H27       1.0  0.6403930874171859  0.822098881908387  0.8253448738242678  1.0000
  H   H28       1.0  0.8596069125322003  0.3220988822292406  0.6746551258428765  1.0000
  H   H29       1.0  0.4334729337137273  0.04254820077750569  0.2068228189129114  1.0000
  H   H30       1.0  0.06652706655989342  0.5425482010340004  0.2931771805071602  1.0000
  H   H31       1.0  0.5665270658832217  0.9574517991581352  0.7931771806267335  1.0000
  H   H32       1.0  0.9334729340661647  0.4574517989016406  0.7068228190404108  1.0000
  H   H33       1.0  0.25339011267394795  0.9389985892842989  0.20773662731271486  1.0000
  H   H34       1.0  0.24660988664938022  0.43899858960515264  0.2922633728068585  1.0000
  H   H35       1.0  0.7466098869230009  0.06100141065134199  0.7922633722269301  1.0000
  H   H36       1.0  0.7533901130263853  0.5610014103304883  0.7077366274402141  1.0000
  H   H37       1.0  0.008667340132039935  0.9707618744768943  0.17346937481604685  1.0000
  H   H38       1.0  0.49133266022039745  0.4707618742203997  0.32653062531145244  1.0000
  H   H39       1.0  0.991332659464909  0.02923812545874657  0.8265306247235982  1.0000
  H   H40       1.0  0.5086673404844774  0.5292381257152412  0.673469374943546  1.0000
  H   H41       1.0  0.745700087198514  0.0276900641861546  0.9803540078822239  1.0000
  H   H42       1.0  0.7542999128296889  0.5276900638653009  0.5196459924923479  1.0000
  H   H43       1.0  0.25429991247725153  0.9723099363268347  0.01964599236484866  1.0000
  H   H44       1.0  0.24570008787518585  0.47230993607034005  0.4803540077626506  1.0000
  H   H45       1.0  0.5956499024381422  0.915342945990551  0.9934439279325248  1.0000
  H   H46       1.0  0.9043500975900608  0.41534294631140467  0.5065560724420471  1.0000
  H   H47       1.0  0.4043500982667326  0.08465705394508995  0.0065560723224737695  1.0000
  H   H48       1.0  0.09564990208570474  0.5846570536242363  0.49344392780502544  1.0000
  H   H49       1.0  0.5572415475051066  0.8609865352213342  0.15303959931517333  1.0000
  H   H50       1.0  0.9427584530319801  0.36098653554218796  0.34696040088104846  1.0000
  H   H51       1.0  0.4427584531997681  0.13901346471430667  0.8469604009398253  1.0000
  H   H52       1.0  0.057241546643785446  0.639013464393453  0.6530395993660241  1.0000
  H   H53       1.0  0.6708898795978219  0.9234128356624985  0.29675662485078713  1.0000
  H   H54       1.0  0.8291101208604483  0.42341283540600394  0.20324337463800707  1.0000
  H   H55       1.0  0.3291101199991271  0.07658716427314238  0.7032433746888578  1.0000
  H   H56       1.0  0.17088987976560982  0.576587164529637  0.7967566249095638  1.0000
  H   H57       1.0  0.824889124064887  0.03493687055695629  0.2835760860377042  1.0000
  H   H58       1.0  0.6751108764721996  0.5349368708134509  0.21642391415851767  1.0000
  H   H59       1.0  0.1751108766399876  0.9650631293786845  0.7164239142172943  1.0000
  H   H60       1.0  0.3248891231247493  0.46506312912219  0.7835760853811273  1.0000
  H   H61       1.0  0.2655013554439229  0.39774903968327013  0.12623799186293835  1.0000
  H   H62       1.0  0.23449864387940533  0.8977490399397647  0.373762008256635  1.0000
  H   H63       1.0  0.7344986442318427  0.6022509602523708  0.8737620083841344  1.0000
  H   H64       1.0  0.7655013557963602  0.10225095999587619  0.6262379919904377  1.0000
  H   H65       1.0  0.10836782338125787  0.34293809646693163  0.10813282788546454  1.0000
  H   H66       1.0  0.39163217689236285  0.8429380967234262  0.3918671715346071  1.0000
  H   H67       1.0  0.891632176215691  0.6570619034687093  0.8918671716541805  1.0000
  H   H68       1.0  0.6083678237336952  0.15706190321221472  0.6081328280129638  1.0000
  H   H69       1.0  0.10057733515717546  0.4439914785070608  0.10396208153045834  1.0000
  H   H70       1.0  0.3994226651952619  0.9439914787635554  0.3960379185970409  1.0000
  H   H71       1.0  0.8994226655476991  0.5560085214285801  0.8960379187245401  1.0000
  H   H72       1.0  0.6005773355096128  0.05600852174943385  0.6039620816579576  1.0000
  H   H73       1.0  0.06517977853200367  0.40579874468188354  0.8458344381567533  1.0000
  H   H74       1.0  0.43482022131154985  0.9057987449383782  0.654165562149096  1.0000
  H   H75       1.0  0.9348202221728709  0.5942012552537573  0.15416556209824533  1.0000
  H   H76       1.0  0.5651797783642157  0.09420125499726277  0.3458344380979765  1.0000
  H   H77       1.0  0.9628400556360736  0.4168078024587935  0.9470334500706523  1.0000
  H   H78       1.0  0.5371599443921293  0.9168078027152882  0.5529665503039196  1.0000
  H   H79       1.0  0.03715994403969195  0.5831921974768474  0.05296655017642043  1.0000
  H   H80       1.0  0.4628400552836362  0.0831921972203528  0.4470334499431529  1.0000
  H   H81       1.0  0.015691752400708133  0.3254742381169697  0.9120579885362834  1.0000
  H   H82       1.0  0.4843082474428454  0.825474237796116  0.5879420117695658  1.0000
  H   H83       1.0  0.9843082483041665  0.6745257623960196  0.0879420117187151  1.0000
  H   H84       1.0  0.5156917522329202  0.17452576213952492  0.41205798847750674  1.0000
  H   H85       1.0  0.10801132536001881  0.13465659538299793  0.6591426017497143  1.0000
  H   H86       1.0  0.39198867448353475  0.6346565950621443  0.8408573985561351  1.0000
  H   H87       1.0  0.8919886743157467  0.865343404552643  0.3408573984973584  1.0000
  H   H88       1.0  0.60801132622134  0.36534340487349665  0.15914260169886346  1.0000
  H   H89       1.0  0.9964300388356693  0.07981503076840714  0.5745585809173461  1.0000
  H   H90       1.0  0.503569961113717  0.5798150310249017  0.9254414187497982  1.0000
  H   H91       1.0  0.0035699617903887683  0.9201849691672338  0.4254414186302247  1.0000
  H   H92       1.0  0.49643003856204854  0.4201849689107392  0.07455858149727447  1.0000
  H   H93       1.0  0.014162729870814808  0.18006611115884957  0.5616864033070594  1.0000
  H   H94       1.0  0.48583726997273874  0.6800661114153441  0.9383135969987899  1.0000
  H   H95       1.0  0.98583727083406  0.8199338887767914  0.43831359694793903  1.0000
  H   H96       1.0  0.5141627297030268  0.31993388852029675  0.06168640324828282  1.0000
  H   H97       1.0  0.250118885769707  0.07512681490645334  0.39115267525609443  1.0000
  H   H98       1.0  0.24988111458273035  0.5751268145855997  0.10884732487140482  1.0000
  H   H99       1.0  0.749881113827242  0.9248731850291875  0.6088473242835506  1.0000
  H   H100      1.0  0.7501188861221444  0.42487318535004126  0.8911526753835938  1.0000
  H   H101      1.0  0.0834127531133403  0.11811329981834254  0.3852380735259545  1.0000
  H   H102      1.0  0.416587247239097  0.6181132994974889  0.11476192660154469  1.0000
  H   H103      1.0  0.9165872475915344  0.8818867006946466  0.614761926729044  1.0000
  H   H104      1.0  0.5834127524366685  0.38188670043815204  0.8852380736455279  1.0000
  H   H105      1.0  0.10615167804382583  0.025603304056345928  0.4352815544893539  1.0000
  H   H106      1.0  0.3938483212795024  0.5256033037354922  0.06471844563021954  1.0000
  H   H107      1.0  0.8938483216319397  0.974396695879295  0.5647184457577188  1.0000
  H   H108      1.0  0.6061516783174465  0.47439669620014874  0.9352815539094256  1.0000
  H   H109      1.0  0.8551089564223645  0.3013397456211019  0.13190934674603452  1.0000
  H   H110      1.0  0.6448910441147222  0.8013397458775965  0.3680906534501873  1.0000
  H   H111      1.0  0.14489104325340105  0.698660254314539  0.8680906535010381  1.0000
  H   H112      1.0  0.35510895659015246  0.19866025405804447  0.6319093468048113  1.0000
  H   H113      1.0  0.8440236901145917  0.14840237928544858  0.35443498741041457  1.0000
  H   H114      1.0  0.6559763093145693  0.6484023795419431  0.14556501207045375  1.0000
  H   H115      1.0  0.15597630948235736  0.8515976206501924  0.6455650121292305  1.0000
  H   H116      1.0  0.34402369028237956  0.35159762039369774  0.8544349874691911  1.0000
  C   C1        1.0  0.8892863730647825  0.11212870438891222  0.12342442214161707  1.0000
  C   C2        1.0  0.6107136263643784  0.6121287040680585  0.37657557733925123  1.0000
  C   C3        1.0  0.11071362653216632  0.8878712955467287  0.8765755773980279  1.0000
  C   C4        1.0  0.3892863732325706  0.38787129586758234  0.6234244222003937  1.0000
  C   C5        1.0  0.8748011777846909  0.14611332670942354  0.02237085746260366  1.0000
  C   C6        1.0  0.6251988227523958  0.6461133263885698  0.47762914273361823  1.0000
  C   C7        1.0  0.12519882189107465  0.8538866732262174  0.977629142784469  1.0000
  C   C8        1.0  0.37480117795247886  0.35388667354707104  0.5223708575213803  1.0000
  C   C9        1.0  0.7467179379886784  0.1746023802981633  0.9832179890725351  1.0000
  C   C10       1.0  0.7532820619607079  0.6746023805546578  0.5167820105946092  1.0000
  C   C11       1.0  0.25328206263737973  0.8253976196374776  0.016782010475035837  1.0000
  C   C12       1.0  0.24671793771505765  0.32539761938098305  0.48321798965246343  1.0000
  C   C13       1.0  0.730883349486198  0.20415579680914325  0.8915069574249374  1.0000
  C   C14       1.0  0.7691166505420048  0.7041557964882895  0.6084930429496345  1.0000
  C   C15       1.0  0.2691166501895675  0.7958442031264976  0.10849304282213525  1.0000
  C   C16       1.0  0.2308833491337607  0.2958442034473513  0.3915069572974381  1.0000
  C   C17       1.0  0.8427709174906604  0.20538164289153962  0.8361771941113763  1.0000
  C   C18       1.0  0.6572290824587258  0.7053816425706859  0.6638228055557679  1.0000
  C   C19       1.0  0.15722908210628847  0.7946183570441013  0.16382280542826871  1.0000
  C   C20       1.0  0.3427709181673323  0.29461835736495495  0.33617719399180285  1.0000
  C   C21       1.0  0.969785780709497  0.17642316184731593  0.8733379938445353  1.0000
  C   C22       1.0  0.5302142192398893  0.6764231615264622  0.6266620058226089  1.0000
  C   C23       1.0  0.030214219995377732  0.8235768380883249  0.12666200641046324  1.0000
  C   C24       1.0  0.46978578035705953  0.3235768384091786  0.373337993717036  1.0000
  C   C25       1.0  0.9853219650166021  0.14686496200580842  0.965257824917656  1.0000
  C   C26       1.0  0.5146780349327841  0.6468649616849548  0.5347421747494883  1.0000
  C   C27       1.0  0.01467803458034673  0.8531350385071808  0.03474217462198897  1.0000
  C   C28       1.0  0.4853219646641648  0.3531350382506862  0.46525782479015676  1.0000
  C   C29       1.0  0.040968325301539196  0.09289562573293872  0.15493120669344  1.0000
  C   C30       1.0  0.4590316749720815  0.5928956259894334  0.34506879272663155  1.0000
  C   C31       1.0  0.9590316742954097  0.9071043742027022  0.8450687928462051  1.0000
  C   C32       1.0  0.5409683256539766  0.40710437394620763  0.6549312068209393  1.0000
  C   C33       1.0  0.1430072758235464  0.15067119638149049  0.15743451317382684  1.0000
  C   C34       1.0  0.35699272349978184  0.6506711966379851  0.3425654869457465  1.0000
  C   C35       1.0  0.8569927238522193  0.8493288035541504  0.8425654870732459  1.0000
  C   C36       1.0  0.6430072761759837  0.3493288032976558  0.6574345133013261  1.0000
  C   C37       1.0  0.282128963108618  0.1326258005090357  0.17667627931367863  1.0000
  C   C38       1.0  0.21787103724381932  0.6326258007655303  0.32332372081382066  1.0000
  C   C39       1.0  0.7178710365671476  0.8673741994266052  0.823323720933394  1.0000
  C   C40       1.0  0.7821289634610554  0.3673741991701106  0.6766762794411779  1.0000
  C   C41       1.0  0.3239706405744035  0.05662820986914216  0.19544492326363835  1.0000
  C   C42       1.0  0.17602935867010808  0.5566282101256367  0.30455507614850735  1.0000
  C   C43       1.0  0.6760293590225454  0.9433717900664987  0.8045550762760065  1.0000
  C   C44       1.0  0.8239706409268408  0.4433717903873524  0.6954449233911376  1.0000
  C   C45       1.0  0.2237852666260386  0.9991224397825231  0.1955610403336215  1.0000
  C   C46       1.0  0.27621473372639876  0.4991224395260285  0.30443895979387775  1.0000
  C   C47       1.0  0.776214733049727  0.000877560153117831  0.8044389599134512  1.0000
  C   C48       1.0  0.723785266978476  0.5008775604096124  0.6955610404611207  1.0000
  C   C49       1.0  0.08409058942922773  0.01716699971902268  0.17559484140607712  1.0000
  C   C50       1.0  0.41590941092320965  0.5171669999755173  0.3244051587214221  1.0000
  C   C51       1.0  0.9159094102465379  0.9828330002166182  0.8244051588409955  1.0000
  C   C52       1.0  0.5840905897816651  0.4828329999601237  0.6755948415335764  1.0000
  C   C53       1.0  0.7947686025923987  0.041563794819026466  0.13081730182431672  1.0000
  C   C54       1.0  0.7052313978658714  0.541563795075521  0.3691826976644774  1.0000
  C   C55       1.0  0.20523139700455015  0.9584362051166144  0.8691826977153283  1.0000
  C   C56       1.0  0.2947686027601868  0.4584362048601199  0.6308173018830934  1.0000
  C   C57       1.0  0.729920982066608  0.005747281036346017  0.05036130319035909  1.0000
  C   C58       1.0  0.7700790173625529  0.5057472812928405  0.4496386962905093  1.0000
  C   C59       1.0  0.27007901753034086  0.994252718899295  0.9496386963492859  1.0000
  C   C60       1.0  0.22992098223439608  0.4942527186428003  0.5503613032491358  1.0000
  C   C61       1.0  0.644711532092685  0.9413997571234676  0.05775721339254526  1.0000
  C   C62       1.0  0.8552884674152925  0.4413997568669729  0.44224278679575074  1.0000
  C   C63       1.0  0.3552884675830806  0.05860024281217343  0.9422427868545274  1.0000
  C   C64       1.0  0.14471153226047295  0.5586002430686681  0.5577572134513219  1.0000
  C   C65       1.0  0.6226087432580724  0.9113533873691536  0.14620837827768973  1.0000
  C   C66       1.0  0.8773912561710887  0.41135338711265906  0.3537916212031786  1.0000
  C   C67       1.0  0.37739125633887666  0.08864661256648725  0.8537916212619553  1.0000
  C   C68       1.0  0.12260874342586027  0.5886466128229818  0.6462083783364664  1.0000
  C   C69       1.0  0.6871294042000178  0.946266304323182  0.2271491359743758  1.0000
  C   C70       1.0  0.8128705953079598  0.44626630464403577  0.2728508642139202  1.0000
  C   C71       1.0  0.3128705954757478  0.05373369561245882  0.772850864272697  1.0000
  C   C72       1.0  0.18712940436780573  0.5537336958689535  0.7271491360331523  1.0000
  C   C73       1.0  0.7728060376782206  0.0100533835557516  0.21954745440656614  1.0000
  C   C74       1.0  0.7271939628588661  0.5100533838122462  0.2804525457896557  1.0000
  C   C75       1.0  0.22719396302665404  0.9899466163798892  0.7804525458484325  1.0000
  C   C76       1.0  0.27280603784600865  0.4899466161233947  0.7195474544653427  1.0000
  C   C77       1.0  0.16416961530494173  0.3943997002638853  0.08639072524442988  1.0000
  C   C78       1.0  0.33583038496867895  0.89439970052038  0.4136092741756417  1.0000
  C   C79       1.0  0.8358303853211163  0.6056002996717555  0.913609274303141  1.0000
  C   C80       1.0  0.66416961462827  0.105600299415261  0.5863907253640033  1.0000
  C   C81       1.0  0.17704861109741946  0.3907738658648633  0.9817457395913475  1.0000
  C   C82       1.0  0.32295138866731743  0.8907738661213579  0.5182542600070743  1.0000
  C   C83       1.0  0.8229513884995295  0.6092261340707776  0.018254259948297602  1.0000
  C   C84       1.0  0.6770486109296315  0.10922613381428302  0.4817457395325707  1.0000
  C   C85       1.0  0.04784490521149942  0.3865886104240386  0.9172687161622949  1.0000
  C   C86       1.0  0.45215509455323744  0.8865886101031849  0.5827312834361268  1.0000
  C   C87       1.0  0.9521550943854494  0.6134113895116022  0.08273128337735013  1.0000
  C   C88       1.0  0.5478449060728205  0.113411389832456  0.41726871611144406  1.0000
  C   C89       1.0  0.07060316643344844  0.1272639860540676  0.5847857707570393  1.0000
  C   C90       1.0  0.4293968333312885  0.627263985733214  0.9152142288413825  1.0000
  C   C91       1.0  0.9293968331635005  0.8727360138815734  0.4152142287826058  1.0000
  C   C92       1.0  0.5706031662656604  0.372736014202427  0.08478577069826254  1.0000
  C   C93       1.0  0.18742852605820526  0.11740220245432473  0.5238785234569142  1.0000
  C   C94       1.0  0.31257147481445746  0.6174022027108194  0.9761214768568609  1.0000
  C   C95       1.0  0.8125714746466693  0.8825977974813162  0.4761214767980843  1.0000
  C   C96       1.0  0.6874285258904173  0.38259779722482157  0.023878523398137584  1.0000
  C   C97       1.0  0.15720564784687419  0.08165168015777935  0.42849972812551734  1.0000
  C   C98       1.0  0.3427943525055631  0.5816516798369257  0.07150027200198193  1.0000
  C   C99       1.0  0.8427943517500748  0.9183483203552099  0.5715002714141276  1.0000
  C   C100      1.0  0.6572056481993115  0.41834832009871525  0.9284997282530165  1.0000
  O   O1        1.0  0.9070928183301976  0.26660009435099613  0.18062026396337605  1.0000
  O   O2        1.0  0.5929071811777799  0.7666000946074908  0.31937973622491994  1.0000
  O   O3        1.0  0.09290718134556787  0.7333999055846447  0.8193797362836966  1.0000
  O   O4        1.0  0.40709281849798573  0.23339990590549847  0.6806202640221528  1.0000
  O   O5        1.0  0.9040520617778633  0.1721141136969687  0.307604835998478  1.0000
  O   O6        1.0  0.5959479377301141  0.672114113376115  0.192395164189818  1.0000
  O   O7        1.0  0.0959479378979022  0.8278858862386722  0.6923951642485946  1.0000
  O   O8        1.0  0.4040520619456513  0.3278858865595259  0.8076048360572547  1.0000
  O   O9        1.0  0.29297298719407894  0.3894682568077291  0.951230602594664  1.0000
  O   O10       1.0  0.20702701264947462  0.8894682564868756  0.5487693977111853  1.0000
  O   O11       1.0  0.7070270124816866  0.6105317431279118  0.04876939765240866  1.0000
  O   O12       1.0  0.7929729870262908  0.11053174344876546  0.4512306025358873  1.0000
  O   O13       1.0  0.3061433214349595  0.13955952533948435  0.5502946695803561  1.0000
  O   O14       1.0  0.19385667840859408  0.639559525595979  0.9497053307254931  1.0000
  O   O15       1.0  0.6938566782408061  0.8604404745961566  0.44970533066671653  1.0000
  O   O16       1.0  0.8061433212671715  0.360440474339662  0.05029466952157948  1.0000
  P   P1        1.0  0.8277744286468389  0.19001087414061676  0.20576928724292015  1.0000
  P   P2        1.0  0.6722255718902478  0.6900108743971113  0.2942307129533017  1.0000
  P   P3        1.0  0.17222557102892663  0.8099891257950242  0.7942307130041526  1.0000
  P   P4        1.0  0.32777442873581025  0.3099891255385296  0.7057692865942691  1.0000
  S   S1        1.0  0.6286027740180754  0.1982732575037157  0.20399974779549646  1.0000
  S   S2        1.0  0.8713972265190113  0.6982732571828619  0.2960002524007254  1.0000
  S   S3        1.0  0.37139722668679936  0.8017267430092735  0.796000252459502  1.0000
  S   S4        1.0  0.12860277418586336  0.30172674275277894  0.7039997478542731  1.0000
