data_image0
_chemical_formula_structural       H46B4C36N4O4
_chemical_formula_sum              "H46 B4 C36 N4 O4"
_cell_length_a       9.21934492513632
_cell_length_b       9.643717563146717
_cell_length_c       10.478805606432399
_cell_angle_alpha    81.86400600748146
_cell_angle_beta     79.16309834251459
_cell_angle_gamma    83.21085158462938

_space_group_name_H-M_alt    "P 1"
_space_group_IT_number       1

loop_
  _space_group_symop_operation_xyz
  'x, y, z'

loop_
  _atom_site_type_symbol
  _atom_site_label
  _atom_site_symmetry_multiplicity
  _atom_site_fract_x
  _atom_site_fract_y
  _atom_site_fract_z
  _atom_site_occupancy
  H   H1        1.0  0.0454656291895218  0.8664640274701297  0.020618461495078497  1.0000
  H   H2        1.0  0.9545343710570756  0.1335359724566997  0.97938153869724  1.0000
  H   H3        1.0  0.21659868611129096  0.05395017138978474  0.9284160410753154  1.0000
  H   H4        1.0  0.7834013141353064  0.9460498285370447  0.07158395911700319  1.0000
  H   H5        1.0  0.42166795205632496  0.9766875842003772  0.27444853261559893  1.0000
  H   H6        1.0  0.5783320481902725  0.023312415726452297  0.7255514675767195  1.0000
  H   H7        1.0  0.4013594894201797  0.10670272430706573  0.05258168749637528  1.0000
  H   H8        1.0  0.5986405108264178  0.8932972756197638  0.947418312695943  1.0000
  H   H9        1.0  0.4186654881191375  0.2912309991577113  0.751800993816559  1.0000
  H   H10       1.0  0.5813345121274598  0.7087690007691181  0.24819900637575953  1.0000
  H   H11       1.0  0.2821820467934365  0.5152783658874367  0.881711048086618  1.0000
  H   H12       1.0  0.7178179534531608  0.48472163403939295  0.11828895210570037  1.0000
  H   H13       1.0  0.23436280147348576  0.31907388413007  0.44706345004937165  1.0000
  H   H14       1.0  0.765637198645399  0.6809261168404428  0.5529365501472917  1.0000
  H   H15       1.0  0.4843733052407231  0.4017238470605523  0.39639328392229556  1.0000
  H   H16       1.0  0.5156266952037386  0.5982761529996006  0.6036067152910569  1.0000
  H   H17       1.0  0.49897404444871474  0.22294209118385025  0.3687161330630487  1.0000
  H   H18       1.0  0.5010259557978826  0.7770579087429791  0.6312838671292699  1.0000
  H   H19       1.0  0.551417270600142  0.267313201970495  0.5115436542630234  1.0000
  H   H20       1.0  0.44858272984431974  0.7326867980896578  0.4884563449503291  1.0000
  H   H21       1.0  0.30229486114956233  0.061736424490366884  0.5002745651994379  1.0000
  H   H22       1.0  0.6977051390970349  0.9382635754364625  0.4997254349928806  1.0000
  H   H23       1.0  0.16426312895406336  0.13047954920421612  0.6240859219081741  1.0000
  H   H24       1.0  0.8357368702085145  0.8695204507254353  0.37591407827950785  1.0000
  H   H25       1.0  0.35095274027628115  0.09099263583490821  0.649840033296349  1.0000
  H   H26       1.0  0.6490472590841613  0.9090073642280667  0.35015996591236703  1.0000
  H   H27       1.0  0.9998500944401937  0.6988648792905358  0.6682558650318273  1.0000
  H   H28       1.0  0.00014990580640348303  0.3011351206362937  0.33174413516049117  1.0000
  H   H29       1.0  0.881987245353038  0.7402336573353986  0.894873984495904  1.0000
  H   H30       1.0  0.11801275380953993  0.25976634259425285  0.10512601569177792  1.0000
  H   H31       1.0  0.025307704909016113  0.6286485958321769  0.9596933712266971  1.0000
  H   H32       1.0  0.9746922953375813  0.3713514040946525  0.04030662896562134  1.0000
  H   H33       1.0  0.9050777435811158  0.5580001798611001  0.8760235259972942  1.0000
  H   H34       1.0  0.09492225666548139  0.4419998200657294  0.12397647419502447  1.0000
  H   H35       1.0  0.2180179095780448  0.8289985214826753  0.6395893593383286  1.0000
  H   H36       1.0  0.7819820906685526  0.17100147844415417  0.3604106408539898  1.0000
  H   H37       1.0  0.230237265928025  0.7908833029891945  0.8092572285749594  1.0000
  H   H38       1.0  0.7697627343185725  0.20911669693763474  0.1907427716173589  1.0000
  H   H39       1.0  0.0768324924479403  0.9012768640634489  0.7594270039707472  1.0000
  H   H40       1.0  0.9231675077986571  0.09872313586338062  0.24057299622157124  1.0000
  H   H41       1.0  0.30222015766297533  0.555445510466312  0.18758188571800943  1.0000
  H   H42       1.0  0.6977798414996027  0.44455448946333964  0.8124181144696726  1.0000
  H   H43       1.0  0.38877662564628573  0.30753959546141035  0.1580731619170497  1.0000
  H   H44       1.0  0.6112233746003116  0.692460404465419  0.8419268382752688  1.0000
  H   H45       1.0  0.5883237995876743  0.25044728191527516  0.9707050304248536  1.0000
  H   H46       1.0  0.41167620065892296  0.7495527180115543  0.029294969767464915  1.0000
  B   B1        1.0  0.12172855980326282  0.6708221042847452  0.38523784227419994  1.0000
  B   B2        1.0  0.8782714393593152  0.3291778956449062  0.614762157913482  1.0000
  B   B3        1.0  0.07175922846048348  0.5402168536220828  0.4981543222291302  1.0000
  B   B4        1.0  0.928240771786114  0.45978314630474654  0.5018456779631882  1.0000
  C   C1        1.0  0.24390871415984178  0.8508383225677982  0.2686842055711387  1.0000
  C   C2        1.0  0.7560912859590431  0.14916167840271455  0.7313157946255245  1.0000
  C   C3        1.0  0.13889336442565792  0.8206968481933246  0.1978857574471127  1.0000
  C   C4        1.0  0.8611066347369201  0.17930315173632697  0.8021142427405693  1.0000
  C   C5        1.0  0.12598092099033026  0.891645720324777  0.07535933273211416  1.0000
  C   C6        1.0  0.8740190783701122  0.10835427973819813  0.9246406664766019  1.0000
  C   C7        1.0  0.22282290078631423  0.995908916837061  0.02475770824876202  1.0000
  C   C8        1.0  0.777177099460283  0.0040910830897684805  0.9752422919435565  1.0000
  C   C9        1.0  0.33963888377036594  0.9539589074669181  0.21970772037059533  1.0000
  C   C10       1.0  0.6603611166740958  0.04604109259323482  0.7802922788427572  1.0000
  C   C11       1.0  0.3270795654035238  0.02643663360683774  0.09545946927092402  1.0000
  C   C12       1.0  0.6729204350409379  0.9735633664533151  0.9045405299424284  1.0000
  C   C13       1.0  0.3326720368819131  0.3717138860823638  0.7274146319317293  1.0000
  C   C14       1.0  0.6673279622806649  0.6282861138472877  0.27258536825595275  1.0000
  C   C15       1.0  0.16969117515221896  0.4931819200370761  0.6062933199437531  1.0000
  C   C16       1.0  0.830308824010359  0.5068180798925754  0.39370668024392874  1.0000
  C   C17       1.0  0.26604538752822815  0.48257213944084665  0.7912024729818516  1.0000
  C   C18       1.0  0.7339546116343498  0.5174278604888048  0.20879752720583036  1.0000
  C   C19       1.0  0.31194378652188137  0.2815882589478795  0.515454134315908  1.0000
  C   C20       1.0  0.688056213724716  0.7184117409789499  0.4845458658764105  1.0000
  C   C21       1.0  0.47103441168793864  0.29413172554800787  0.4446339641509031  1.0000
  C   C22       1.0  0.5289655885586586  0.7058682743788216  0.5553660360414154  1.0000
  C   C23       1.0  0.28066994689864  0.1325549013435822  0.5764541496893267  1.0000
  C   C24       1.0  0.719330052263938  0.8674450985860693  0.42354585049835525  1.0000
  C   C25       1.0  0.06671943700052627  0.6812164588378469  0.7469019667004573  1.0000
  C   C26       1.0  0.9332805623599162  0.31878354122512803  0.25309803250825874  1.0000
  C   C27       1.0  0.9642431385988859  0.6498726527355863  0.8774546980103968  1.0000
  C   C28       1.0  0.03575686164771146  0.3501273471912433  0.12254530218192174  1.0000
  C   C29       1.0  0.15382144244987495  0.8080472439686642  0.7384071437603551  1.0000
  C   C30       1.0  0.8461785579945865  0.19195275609148868  0.2615928554529975  1.0000
  C   C31       1.0  0.3888034976518014  0.5317098702121992  0.10517088337995735  1.0000
  C   C32       1.0  0.611196501708641  0.46829012985077584  0.8948291158287587  1.0000
  C   C33       1.0  0.43791248469256727  0.39163673179257524  0.08858549634284738  1.0000
  C   C34       1.0  0.56208751555403  0.608363268134254  0.911414503849471  1.0000
  C   C35       1.0  0.5491244984582787  0.359663075140141  0.9836204665080092  1.0000
  C   C36       1.0  0.4508755007042993  0.6403369247895105  0.016379533679672847  1.0000
  N   N1        1.0  0.27232858087901207  0.3797819239993202  0.6145695181948393  1.0000
  N   N2        1.0  0.7276714184814304  0.6202180760636546  0.38543048101387667  1.0000
  N   N3        1.0  0.1673372512219133  0.5558400290803374  0.7154284633898442  1.0000
  N   N4        1.0  0.8326627490246838  0.44415997084649206  0.2845715368024742  1.0000
  O   O1        1.0  0.23558778412837938  0.7619567302973196  0.38336819967297453  1.0000
  O   O2        1.0  0.7644122161182177  0.2380432696295099  0.6166318005193439  1.0000
  O   O3        1.0  0.06229703892671668  0.712809655552324  0.2667515297940516  1.0000
  O   O4        1.0  0.9377029613198806  0.28719034437450547  0.7332484703982669  1.0000
