data_image0
_chemical_formula_structural       H80C60N8F12S4I12
_chemical_formula_sum              "H80 C60 N8 F12 S4 I12"
_cell_length_a       7.998860287930124
_cell_length_b       20.892752822714492
_cell_length_c       13.090244341149353
_cell_angle_alpha    90.0
_cell_angle_beta     100.86001122784285
_cell_angle_gamma    90.0

_space_group_name_H-M_alt    "P 1"
_space_group_IT_number       1

loop_
  _space_group_symop_operation_xyz
  'x, y, z'

loop_
  _atom_site_type_symbol
  _atom_site_label
  _atom_site_symmetry_multiplicity
  _atom_site_fract_x
  _atom_site_fract_y
  _atom_site_fract_z
  _atom_site_occupancy
  H   H1        1.0  0.510117081122695  0.7948279099892422  0.05166475870344062  1.0000
  H   H2        1.0  0.9898829194462214  0.2948279100542047  0.44833524138295766  1.0000
  H   H3        1.0  0.48988291919583  0.20517209035946762  0.9483352410625898  1.0000
  H   H4        1.0  0.010117081112982916  0.7051720902945051  0.5516647591609314  1.0000
  H   H5        1.0  0.5308410358533415  0.8783073272206474  0.03825375865094111  1.0000
  H   H6        1.0  0.9691589647155749  0.37830732728560984  0.4617462414354573  1.0000
  H   H7        1.0  0.4691589644651836  0.12169267264942765  0.9617462411150894  1.0000
  H   H8        1.0  0.030841035602950113  0.6216926725844651  0.5382537583305733  1.0000
  H   H9        1.0  0.2862349602395507  0.8956712721769858  0.13463068448807544  1.0000
  H   H10       1.0  0.21376503917436365  0.39567127224194837  0.3653693150062712  1.0000
  H   H11       1.0  0.7137650388289574  0.10432872769308915  0.8653693152784763  1.0000
  H   H12       1.0  0.7862349611441615  0.6043287276281266  0.6346306847597595  1.0000
  H   H13       1.0  0.4580835046709607  0.8528481608525991  0.2066323821308774  1.0000
  H   H14       1.0  0.04191649474295365  0.35284816043892664  0.29336761736346917  1.0000
  H   H15       1.0  0.5419164943975473  0.14715183949611085  0.7933676176356744  1.0000
  H   H16       1.0  0.9580835055755714  0.6471518394311484  0.7066323824025614  1.0000
  H   H17       1.0  0.2701146063883626  0.8114813157396671  0.14988295281436587  1.0000
  H   H18       1.0  0.229885393266231  0.3114813158046297  0.3501170474578394  1.0000
  H   H19       1.0  0.7298853939301625  0.18851868413040784  0.8501170469516647  1.0000
  H   H20       1.0  0.770114605802277  0.6885186840654454  0.6498829523087124  1.0000
  H   H21       1.0  0.11814470638714608  0.8935524087425861  0.9756841785113707  1.0000
  H   H22       1.0  0.38185529368098764  0.3935524088075487  0.5243158209342922  1.0000
  H   H23       1.0  0.8818552926813619  0.10644759112748882  0.024315821255181176  1.0000
  H   H24       1.0  0.6181447066375374  0.6064475910625263  0.4756841788317384  1.0000
  H   H25       1.0  0.13674985430064443  0.8945072939206806  0.843675492400721  1.0000
  H   H26       1.0  0.3632501457674892  0.39450729398564305  0.6563245070449417  1.0000
  H   H27       1.0  0.8632501460178806  0.10549270594939443  0.15632450736530965  1.0000
  H   H28       1.0  0.6367498533010187  0.6054927058844319  0.34367549272160997  1.0000
  H   H29       1.0  0.37081818222431856  0.9669919086983727  0.019854368395498045  1.0000
  H   H30       1.0  0.12918181743027504  0.46699190876333524  0.48014563187670717  1.0000
  H   H31       1.0  0.6291818183348858  0.033008091171702274  0.9801456321483912  1.0000
  H   H32       1.0  0.8708181816382329  0.5330080911067397  0.5198543678898445  1.0000
  H   H33       1.0  0.2108157348223136  0.9991113410055613  0.9227331294625715  1.0000
  H   H34       1.0  0.2891842652458201  0.49911134107052374  0.5772668699830913  1.0000
  H   H35       1.0  0.7891842654962115  0.0008886588645137546  0.07726687030345908  1.0000
  H   H36       1.0  0.710815735072705  0.5008886587995512  0.4227331297829393  1.0000
  H   H37       1.0  0.39462592612707775  0.9665014228305239  0.8865247425582998  1.0000
  H   H38       1.0  0.10537407394105594  0.4665014228954864  0.6134752568873629  1.0000
  H   H39       1.0  0.6053740741914473  0.03349857703955109  0.1134752572077307  1.0000
  H   H40       1.0  0.8946259263774692  0.5334985769745886  0.3865247428786676  1.0000
  H   H41       1.0  0.2905665649322671  0.738274075268362  0.957693301665333  1.0000
  H   H42       1.0  0.20943343537654582  0.2382740748546896  0.5423066985581885  1.0000
  H   H43       1.0  0.7094334353862579  0.2617259250803479  0.04230669810069759  1.0000
  H   H44       1.0  0.7905665651826584  0.7617259250153854  0.45769330198570074  1.0000
  H   H45       1.0  0.13375833600919285  0.7861663673224828  0.9996819069835539  1.0000
  H   H46       1.0  0.36624166429962013  0.2861663673874453  0.5003180932399675  1.0000
  H   H47       1.0  0.8662416645500115  0.2138336325475922  0.00031809356033532445  1.0000
  H   H48       1.0  0.633758336018905  0.7138336324826297  0.49968190652606304  1.0000
  H   H49       1.0  0.9960012762972988  0.8078806403936107  0.8129035339739282  1.0000
  H   H50       1.0  0.5039987236758198  0.30788064045857316  0.6870964660643074  1.0000
  H   H51       1.0  0.003998723011888332  0.1921193594764643  0.18709646657048215  1.0000
  H   H52       1.0  0.49600127664270527  0.6921193594115018  0.3129035337017231  1.0000
  H   H53       1.0  0.009380604303907141  0.7256225054995076  0.8443905876259548  1.0000
  H   H54       1.0  0.49061939600490573  0.2256225050858353  0.6556094125975664  1.0000
  H   H55       1.0  0.990619396014618  0.2743774948492022  0.15560941214007576  1.0000
  H   H56       1.0  0.5093806045542986  0.7743774947842397  0.34439058794632255  1.0000
  H   H57       1.0  0.15177726622895693  0.7582477103149753  0.7701622234041604  1.0000
  H   H58       1.0  0.3482227340798559  0.2582477103799378  0.7298377768193608  1.0000
  H   H59       1.0  0.8482227340895682  0.2417522895550997  0.22983777636187  1.0000
  H   H60       1.0  0.6517772664793484  0.7417522894901372  0.2701622237245283  1.0000
  H   H61       1.0  0.33379786858701493  0.8398270476317394  0.7806473762258459  1.0000
  H   H62       1.0  0.16620213172179796  0.33982704769670186  0.7193526239976755  1.0000
  H   H63       1.0  0.6662021319721894  0.16017295223833564  0.21935262431804334  1.0000
  H   H64       1.0  0.8337978685967271  0.6601729521733731  0.280647375768355  1.0000
  H   H65       1.0  0.5036237201070564  0.8783215914969985  0.8641148797619829  1.0000
  H   H66       1.0  0.9963762798660625  0.378321591561961  0.6358851202762529  1.0000
  H   H67       1.0  0.49637627896145164  0.12167840885171133  0.13588512000456893  1.0000
  H   H68       1.0  0.0036237206931418937  0.6216784087867488  0.3641148802676362  1.0000
  H   H69       1.0  0.6316227003325308  0.7729194911282121  0.9260029322485153  1.0000
  H   H70       1.0  0.868377299640588  0.27291949119317455  0.5739970677897204  1.0000
  H   H71       1.0  0.3683773002266736  0.22708050874186297  0.07399706829537381  1.0000
  H   H72       1.0  0.13162269942792  0.7270805086769004  0.4260029319768314  1.0000
  H   H73       1.0  0.6031008425853346  0.7814309109257348  0.7900854924673709  1.0000
  H   H74       1.0  0.8968991573877841  0.2814309109906972  0.7099145075708649  1.0000
  H   H75       1.0  0.39689915648317337  0.2185690889443403  0.20991450729918093  1.0000
  H   H76       1.0  0.10310084317142018  0.7185690888793778  0.2900854929730242  1.0000
  H   H77       1.0  0.46262006900306574  0.7318772916020803  0.8441366796851838  1.0000
  H   H78       1.0  0.0373799313057471  0.23187729166704282  0.6558633205383375  1.0000
  H   H79       1.0  0.5373799315561385  0.2681227087466295  0.15586332085870538  1.0000
  H   H80       1.0  0.962620069012778  0.7681227086816671  0.34413667922769303  1.0000
  C   C1        1.0  0.2941516089173286  0.931081591548384  0.5165111119316067  1.0000
  C   C2        1.0  0.2058483913914843  0.43108159161334647  0.9834888882919146  1.0000
  C   C3        1.0  0.7058483914011965  0.06891840832169102  0.4834888878344238  1.0000
  C   C4        1.0  0.79415160916772  0.5689184082567286  0.016511112251974543  1.0000
  C   C5        1.0  0.2549493119019533  0.9726723659845458  0.591844603555371  1.0000
  C   C6        1.0  0.24505068840685962  0.4726723660495082  0.9081553966681503  1.0000
  C   C7        1.0  0.7450506884165718  0.02732763388552928  0.40815539621065944  1.0000
  C   C8        1.0  0.7549493121523446  0.5273276342992016  0.09184460387573891  1.0000
  C   C9        1.0  0.21527858406116923  0.03700148786327142  0.5717982220530984  1.0000
  C   C10       1.0  0.2847214162476437  0.5370014877983089  0.9282017781704228  1.0000
  C   C11       1.0  0.7847214162573559  0.9629985120068035  0.42820177771293216  1.0000
  C   C12       1.0  0.7152785830615436  0.46299851207176607  0.07179822237398739  1.0000
  C   C13       1.0  0.21121007496842875  0.058929716942874154  0.4705902464565303  1.0000
  C   C14       1.0  0.2887899259361819  0.5589297168779116  0.02940975381515366  1.0000
  C   C15       1.0  0.7887899253500963  0.9410702834058357  0.5294097533095002  1.0000
  C   C16       1.0  0.7112100746230223  0.44107028299216333  0.9705902467287355  1.0000
  C   C17       1.0  0.24858179374493006  0.01968600468736903  0.39149763390263703  1.0000
  C   C18       1.0  0.2514182059096636  0.5196860046224065  0.10850236636956814  1.0000
  C   C19       1.0  0.751418205323578  0.9803139951827059  0.6085023658639147  1.0000
  C   C20       1.0  0.7485817944088615  0.48031399524766843  0.8914976333964625  1.0000
  C   C21       1.0  0.29212161657742347  0.9562356511622343  0.41756012862846675  1.0000
  C   C22       1.0  0.2078783830771701  0.4562356512271968  0.08243987164373842  1.0000
  C   C23       1.0  0.7078783824910845  0.043764349186475565  0.582439871138085  1.0000
  C   C24       1.0  0.792121617241355  0.5437643491215131  0.9175601281222922  1.0000
  C   C25       1.0  0.8452461659504831  0.8602650604500293  0.03216472598002605  1.0000
  C   C26       1.0  0.6547538333684163  0.3602650605149917  0.4678352741068935  1.0000
  C   C27       1.0  0.15475383311802499  0.13973493942004578  0.9678352737865257  1.0000
  C   C28       1.0  0.3452461669501087  0.6397349393550833  0.532164725659137  1.0000
  C   C29       1.0  0.4397337431154148  0.8400904791693018  0.0446472918051064  1.0000
  C   C30       1.0  0.06026625653917882  0.3400904787556295  0.4553527084670988  1.0000
  C   C31       1.0  0.5602662574437894  0.15990952117940804  0.9553527087387828  1.0000
  C   C32       1.0  0.9397337425293292  0.6599095211144456  0.544647291299453  1.0000
  C   C33       1.0  0.35611998631094716  0.8503906737786994  0.13783849185808983  1.0000
  C   C34       1.0  0.14388001334364647  0.3503906738436619  0.3621615084141153  1.0000
  C   C35       1.0  0.643880014007578  0.1496093260913756  0.8621615079079408  1.0000
  C   C36       1.0  0.8561199857248615  0.6496093260264131  0.6378384913524363  1.0000
  C   C37       1.0  0.20915974692592493  0.8976016745678165  0.9232715599731103  1.0000
  C   C38       1.0  0.29084025314220874  0.39760167415414405  0.5767284394725525  1.0000
  C   C39       1.0  0.7908402533926001  0.10239832578089347  0.07672843979292028  1.0000
  C   C40       1.0  0.7091597471763162  0.6023983257159309  0.42327156029347807  1.0000
  C   C41       1.0  0.3045945621095139  0.9603985965978132  0.939374566076335  1.0000
  C   C42       1.0  0.19540543795861978  0.4603985966627758  0.5606254333693279  1.0000
  C   C43       1.0  0.6954054382090112  0.03960140327226168  0.06062543368969567  1.0000
  C   C44       1.0  0.8045945623599053  0.5396014032072992  0.4393745663967027  1.0000
  C   C45       1.0  0.20568686663673877  0.7794155853074551  0.9369922972423395  1.0000
  C   C46       1.0  0.2943131334313949  0.2794155853724176  0.5630077022033232  1.0000
  C   C47       1.0  0.7943131324317693  0.22058441456261987  0.06300770252421231  1.0000
  C   C48       1.0  0.70568686688713  0.7205844149762923  0.4369922975627072  1.0000
  C   C49       1.0  0.08521181551838217  0.768126195536684  0.8344737130525689  1.0000
  C   C50       1.0  0.4147881847904308  0.26812619560164663  0.6655262871709525  1.0000
  C   C51       1.0  0.9147881850408222  0.23187380481202574  0.16552628749132037  1.0000
  C   C52       1.0  0.5852118155280942  0.7318738047470633  0.33447371259507797  1.0000
  C   C53       1.0  0.4240722832682628  0.8353300653146052  0.8543930259349021  1.0000
  C   C54       1.0  0.07592771679987091  0.3353300653795678  0.6456069735107607  1.0000
  C   C55       1.0  0.5759277170502622  0.1646699345554697  0.14560697383112844  1.0000
  C   C56       1.0  0.9240722835186542  0.6646699344905072  0.35439302625526986  1.0000
  C   C57       1.0  0.53492232052202  0.7767174334421483  0.855046179977532  1.0000
  C   C58       1.0  0.9650776794510987  0.27671743350711087  0.6449538200607038  1.0000
  C   C59       1.0  0.4650776800371843  0.22328256642792663  0.14495382056635728  1.0000
  C   C60       1.0  0.03492232086742638  0.7232825663629642  0.3550461797053267  1.0000
  N   N1        1.0  0.8047992677659391  0.8966077753829553  0.9624126877799795  1.0000
  N   N2        1.0  0.6952007322071794  0.3966077754479178  0.5375873122582562  1.0000
  N   N3        1.0  0.19520073255258588  0.10339222448711968  0.03758731198605108  1.0000
  N   N4        1.0  0.3047992668613285  0.6033922244221572  0.4624126875082955  1.0000
  N   N5        1.0  0.3195608375699277  0.8378521542153418  0.9398959264908838  1.0000
  N   N6        1.0  0.18043916273888522  0.33785215428030435  0.5601040737326375  1.0000
  N   N7        1.0  0.6804391629892766  0.16214784565473317  0.060104074053005344  1.0000
  N   N8        1.0  0.8195608375796398  0.6621478455897707  0.43989592603339295  1.0000
  F   F1        1.0  0.25433786299347977  0.949490363875497  0.6888440524917662  1.0000
  F   F2        1.0  0.24566213707465387  0.44949036394045955  0.8111559469538965  1.0000
  F   F3        1.0  0.7456621373250452  0.05050963647321282  0.3111559472742643  1.0000
  F   F4        1.0  0.7543378632438713  0.5505096364082502  0.18884405281213407  1.0000
  F   F5        1.0  0.16781408025455852  0.12095744785017094  0.4478447438476531  1.0000
  F   F6        1.0  0.3321859206500522  0.6209574477852084  0.052155256424030835  1.0000
  F   F7        1.0  0.8321859203046458  0.879042552019904  0.552155256696236  1.0000
  F   F8        1.0  0.667814079668473  0.37904255208486654  0.9478447433419998  1.0000
  F   F9        1.0  0.3322443849469194  0.9170030236116488  0.3432689056951644  1.0000
  F   F10       1.0  0.16775561470767425  0.41700302367661135  0.15673109457704082  1.0000
  F   F11       1.0  0.6677556153716057  0.08299697625842613  0.6567310940708662  1.0000
  F   F12       1.0  0.8322443846015131  0.5829969761934636  0.8432689059673696  1.0000
  S   S1        1.0  0.9001284176447583  0.8104938336124881  0.12932613324469394  1.0000
  S   S2        1.0  0.5998715829241582  0.3104938336774506  0.3706738668417044  1.0000
  S   S3        1.0  0.09987158267376679  0.1895061662575869  0.8706738665213366  1.0000
  S   S4        1.0  0.40012841763504614  0.6895061661926244  0.6293261337021848  1.0000
  I   I1        1.0  0.34378661236188546  0.8331382153277423  0.5501031354718716  1.0000
  I   I2        1.0  0.1562133877062482  0.3331382153927047  0.9498968639737911  1.0000
  I   I3        1.0  0.6562133879566396  0.16686178454233275  0.44989686429415887  1.0000
  I   I4        1.0  0.8437866126122768  0.6668617844773702  0.05010313579223944  1.0000
  I   I5        1.0  0.16608270714396794  0.09787021065873752  0.6918328018176911  1.0000
  I   I6        1.0  0.333917293164845  0.597870210593775  0.8081671984058302  1.0000
  I   I7        1.0  0.8339172931745571  0.9021297896899723  0.3081671979483394  1.0000
  I   I8        1.0  0.6660827073943594  0.4021297892763  0.1918328021380589  1.0000
  I   I9        1.0  0.23107377326904016  0.053623628705450746  0.23825623584117384  1.0000
  I   I10       1.0  0.2689262276355706  0.5536236286404882  0.2617437644305102  1.0000
  I   I11       1.0  0.7689262272901641  0.9463763711646243  0.7617437647027153  1.0000
  I   I12       1.0  0.7310737726829545  0.44637637122958673  0.7382562353355203  1.0000
