data_image0
_chemical_formula_structural       H36C16P4I16
_chemical_formula_sum              "H36 C16 P4 I16"
_cell_length_a       9.999225422003917
_cell_length_b       9.543346033341408
_cell_length_c       12.674893896901109
_cell_angle_alpha    90.0
_cell_angle_beta     91.36025211202966
_cell_angle_gamma    90.0

_space_group_name_H-M_alt    "P 1"
_space_group_IT_number       1

loop_
  _space_group_symop_operation_xyz
  'x, y, z'

loop_
  _atom_site_type_symbol
  _atom_site_label
  _atom_site_symmetry_multiplicity
  _atom_site_fract_x
  _atom_site_fract_y
  _atom_site_fract_z
  _atom_site_occupancy
  H   H1        1.0  0.4205148551416552  0.2500000001744302  0.04531853392253693  1.0000
  H   H2        1.0  0.5794851443143088  0.7500000005232906  0.954681466452139  1.0000
  H   H3        1.0  0.5707365329003339  0.15696580892765902  0.02117280572945792  1.0000
  H   H4        1.0  0.4292634675557799  0.6569658092765195  0.9788271946478091  1.0000
  H   H5        1.0  0.4292634675557799  0.8430341907222114  0.9788271946478091  1.0000
  H   H6        1.0  0.5707365329003339  0.34303419142120145  0.02117280572945792  1.0000
  H   H7        1.0  0.3491304267149273  0.11804705457227946  0.7748119735284306  1.0000
  H   H8        1.0  0.650869573720723  0.6180470549211399  0.22518802605965707  1.0000
  H   H9        1.0  0.650869573720723  0.881952945077591  0.22518802605965707  1.0000
  H   H10       1.0  0.3491304267149273  0.38195294577658095  0.7748119735284306  1.0000
  H   H11       1.0  0.3046893577583168  0.11403426179852821  0.9087280332577301  1.0000
  H   H12       1.0  0.6953106426773334  0.6140342621473887  0.09127196633035742  1.0000
  H   H13       1.0  0.6953106426773334  0.8859657378513421  0.09127196633035742  1.0000
  H   H14       1.0  0.3046893577583168  0.3859657385503322  0.9087280332577301  1.0000
  H   H15       1.0  0.44874822876691667  0.021659607571373623  0.867420965906748  1.0000
  H   H16       1.0  0.5512517706890472  0.5216596079202341  0.13257903446792793  1.0000
  H   H17       1.0  0.5512517706890472  0.9783403920784969  0.13257903446792793  1.0000
  H   H18       1.0  0.44874822876691667  0.47834039277748686  0.867420965906748  1.0000
  H   H19       1.0  0.7477017844577896  0.2500000001744302  0.5274943748677717  1.0000
  H   H20       1.0  0.2522982159983244  0.7500000005232906  0.47250562550949515  1.0000
  H   H21       1.0  0.8112624492669316  0.156137708388038  0.639303330364743  1.0000
  H   H22       1.0  0.1887375511687186  0.6561377076890479  0.3606966692233446  1.0000
  H   H23       1.0  0.1887375511687186  0.8438622923096829  0.3606966692233446  1.0000
  H   H24       1.0  0.8112624492669316  0.34386229196082246  0.639303330364743  1.0000
  H   H25       1.0  0.43322308491487704  0.1174512761125929  0.6359319403454616  1.0000
  H   H26       1.0  0.5667769145410868  0.6174512764614534  0.3640680600292142  1.0000
  H   H27       1.0  0.5667769145410868  0.8825487235372774  0.3640680600292142  1.0000
  H   H28       1.0  0.43322308491487704  0.38254872423626757  0.6359319403454616  1.0000
  H   H29       1.0  0.5860851555235599  0.021775152999166724  0.648087963137899  1.0000
  H   H30       1.0  0.4139148439119401  0.5217751523001767  0.35191203644759766  1.0000
  H   H31       1.0  0.4139148439119401  0.9782248476985542  0.35191203644759766  1.0000
  H   H32       1.0  0.5860851555235599  0.4782248473496938  0.648087963137899  1.0000
  H   H33       1.0  0.5465353219605992  0.1155853833808625  0.5306637654147323  1.0000
  H   H34       1.0  0.4534646774953646  0.6155853826818724  0.46933623495994364  1.0000
  H   H35       1.0  0.4534646774953646  0.8844146173168584  0.46933623495994364  1.0000
  H   H36       1.0  0.5465353219605992  0.38441461696799795  0.5306637654147323  1.0000
  C   C1        1.0  0.4709416609306644  0.2500000001744302  0.8819273678517295  1.0000
  C   C2        1.0  0.5290583395049858  0.7500000005232906  0.11807263173635793  1.0000
  C   C3        1.0  0.5122020812402414  0.2500000001744302  0.9990714467281754  1.0000
  C   C4        1.0  0.48779791819525875  0.7500000005232906  0.0009285528573210729  1.0000
  C   C5        1.0  0.3900583799272922  0.11771786290417646  0.8556015614315068  1.0000
  C   C6        1.0  0.6099416195286715  0.6177178622051864  0.14439843894316928  1.0000
  C   C7        1.0  0.6099416195286715  0.8822821377935445  0.14439843894316928  1.0000
  C   C8        1.0  0.3900583799272922  0.38228213744468403  0.8556015614315068  1.0000
  C   C9        1.0  0.6125590924585175  0.2500000001744302  0.6554230595410586  1.0000
  C   C10       1.0  0.3874409079771328  0.7500000005232906  0.34457694004702893  1.0000
  C   C11       1.0  0.7554775679219008  0.2500000001744302  0.6141969054461068  1.0000
  C   C12       1.0  0.24452243251374947  0.7500000005232906  0.3858030941419807  1.0000
  C   C13       1.0  0.539537336369735  0.1178457289582561  0.6171168339596927  1.0000
  C   C14       1.0  0.46046266308622885  0.6178457293071166  0.3828831664149833  1.0000
  C   C15       1.0  0.46046266308622885  0.8821542706916142  0.3828831664149833  1.0000
  C   C16       1.0  0.539537336369735  0.38215427139060437  0.6171168339596927  1.0000
  P   P1        1.0  0.6294175380910471  0.2500000001744302  0.8040988213582311  1.0000
  P   P2        1.0  0.3705824623650668  0.7500000005232906  0.1959011790190357  1.0000
  P   P3        1.0  0.05638810353068997  0.2500000001744302  0.5116707468667137  1.0000
  P   P4        1.0  0.9436118969049604  0.7500000005232906  0.4883292527213738  1.0000
  I   I1        1.0  0.758152699237219  0.04161477312176514  0.8570929452721436  1.0000
  I   I2        1.0  0.24184730021874484  0.5416147724227751  0.1429070551025323  1.0000
  I   I3        1.0  0.24184730021874484  0.9583852275759558  0.1429070551025323  1.0000
  I   I4        1.0  0.758152699237219  0.4583852272270953  0.8570929452721436  1.0000
  I   I5        1.0  0.10877164733350775  0.048596640882529  0.6319917551662447  1.0000
  I   I6        1.0  0.8912283521224561  0.5485966401835389  0.3680082452084312  1.0000
  I   I7        1.0  0.8912283521224561  0.951403359815192  0.3680082452084312  1.0000
  I   I8        1.0  0.10877164733350775  0.4514033594663314  0.6319917551662447  1.0000
  I   I9        1.0  0.24655170192749948  0.2500000001744302  0.3896447181877801  1.0000
  I   I10       1.0  0.7534482985286145  0.7500000005232906  0.6103552821894868  1.0000
  I   I11       1.0  0.5917815272609954  0.2500000001744302  0.30034452677013584  1.0000
  I   I12       1.0  0.4082184721949685  0.7500000005232906  0.6996554736045403  1.0000
  I   I13       1.0  0.8349684333396725  0.2500000001744302  0.18247042448855294  1.0000
  I   I14       1.0  0.1650315671164414  0.7500000005232906  0.8175295758887139  1.0000
  I   I15       1.0  0.080108279472709  0.2500000001744302  0.05077020753239615  1.0000
  I   I16       1.0  0.9198917209834049  0.7500000005232906  0.9492297928448709  1.0000
