data_image0
_chemical_formula_structural       H18C14N2F4S2I2
_chemical_formula_sum              "H18 C14 N2 F4 S2 I2"
_cell_length_a       5.179193614221076
_cell_length_b       6.099908115360761
_cell_length_c       15.169898606920006
_cell_angle_alpha    100.00437694571549
_cell_angle_beta     96.53504148413015
_cell_angle_gamma    99.19525812727865

_space_group_name_H-M_alt    "P 1"
_space_group_IT_number       1

loop_
  _space_group_symop_operation_xyz
  'x, y, z'

loop_
  _atom_site_type_symbol
  _atom_site_label
  _atom_site_symmetry_multiplicity
  _atom_site_fract_x
  _atom_site_fract_y
  _atom_site_fract_z
  _atom_site_occupancy
  H   H1        1.0  0.9730238408929486  0.6592172229606983  0.21865721650736158  1.0000
  H   H2        1.0  0.026976158739851843  0.3407827767003453  0.7813427837638712  1.0000
  H   H3        1.0  0.5925143573923216  0.00601407483177417  0.3505913308654736  1.0000
  H   H4        1.0  0.4074856422404787  0.9939859248292693  0.6494086694057591  1.0000
  H   H5        1.0  0.8461989006344873  0.10765041401565467  0.44540218147204347  1.0000
  H   H6        1.0  0.15380109899831296  0.892349585645389  0.5545978187991893  1.0000
  H   H7        1.0  0.03368628212848452  0.0264292121947038  0.3007487516867618  1.0000
  H   H8        1.0  0.9663137172213175  0.9735707871308862  0.6992512479078846  1.0000
  H   H9        1.0  0.12737678790125126  0.8515159606733441  0.37735741903388814  1.0000
  H   H10       1.0  0.8726232120450055  0.14848404064759027  0.6226425812356832  1.0000
  H   H11       1.0  0.917129479568119  0.4421873134224505  0.3403503111776314  1.0000
  H   H12       1.0  0.08287052199606441  0.5578126862381986  0.6596496890955926  1.0000
  H   H13       1.0  0.6856656407293455  0.34367066271826946  0.23894626870204533  1.0000
  H   H14       1.0  0.31433435890345485  0.6563293369427743  0.7610537315691874  1.0000
  H   H15       1.0  0.46210690193394743  0.35948400321393076  0.37707433247890626  1.0000
  H   H16       1.0  0.5378930976988531  0.6405159964471129  0.6229256677923265  1.0000
  H   H17       1.0  0.3583939495853611  0.5466166744745643  0.3080423839123452  1.0000
  H   H18       1.0  0.641606049764441  0.45338332485102567  0.6919576156823012  1.0000
  C   C1        1.0  0.18652796930502621  0.9237042509990436  0.05833967269943228  1.0000
  C   C2        1.0  0.8134720300447758  0.07629574832654627  0.9416603268952142  1.0000
  C   C3        1.0  0.09594468627284612  0.8060906794128679  0.9702553450786994  1.0000
  C   C4        1.0  0.9040553133599544  0.1939093202481758  0.0297446551925335  1.0000
  C   C5        1.0  0.08633209562579909  0.1186502420698236  0.08669102055054141  1.0000
  C   C6        1.0  0.9136679040070014  0.88134975759122  0.9133089797206914  1.0000
  C   C7        1.0  0.7558908683306264  0.9603031075171885  0.39224045149549386  1.0000
  C   C8        1.0  0.244109133233557  0.039696892143460505  0.6077595487777302  1.0000
  C   C9        1.0  0.9587346320289997  0.8874933295744994  0.3338771142464252  1.0000
  C   C10       1.0  0.041265367320802285  0.11250666975109043  0.6661228853482211  1.0000
  C   C11       1.0  0.7527105646932007  0.4843740671930159  0.29708805352471473  1.0000
  C   C12       1.0  0.24728943493959962  0.5156259324680278  0.702911946746518  1.0000
  C   C13       1.0  0.527048532904069  0.5132078333627988  0.35123158670527405  1.0000
  C   C14       1.0  0.472951466445733  0.48679216596279123  0.6487684128893724  1.0000
  N   N1        1.0  0.8401974773820126  0.689860898555697  0.2622605660681719  1.0000
  N   N2        1.0  0.15980252225078792  0.3101391011053467  0.7377394342030609  1.0000
  F   F1        1.0  0.18795674380973798  0.6157943168762633  0.937534607505188  1.0000
  F   F2        1.0  0.8120432577544455  0.38420568278438577  0.06246539276803605  1.0000
  F   F3        1.0  0.16126905730027263  0.23796903815849166  0.17308954440334684  1.0000
  F   F4        1.0  0.8387309420495292  0.7620309611670982  0.8269104551912995  1.0000
  S   S1        1.0  0.6216012042679053  0.7403835394267104  0.449712643529133  1.0000
  S   S2        1.0  0.3783987953648951  0.2596164602343333  0.5502873567420998  1.0000
  I   I1        1.0  0.46453851400904606  0.8100516234247105  0.14710726537431615  1.0000
  I   I2        1.0  0.5354614856237543  0.18994837623633298  0.8528927348969166  1.0000
