data_image0
_chemical_formula_structural       H22C16N2F4I2
_chemical_formula_sum              "H22 C16 N2 F4 I2"
_cell_length_a       5.213565562439594
_cell_length_b       6.026716644524453
_cell_length_c       15.127717454175148
_cell_angle_alpha    99.27289983819871
_cell_angle_beta     96.02805948999729
_cell_angle_gamma    99.37630821898023

_space_group_name_H-M_alt    "P 1"
_space_group_IT_number       1

loop_
  _space_group_symop_operation_xyz
  'x, y, z'

loop_
  _atom_site_type_symbol
  _atom_site_label
  _atom_site_symmetry_multiplicity
  _atom_site_fract_x
  _atom_site_fract_y
  _atom_site_fract_z
  _atom_site_occupancy
  H   H1        1.0  0.016054994430783672  0.5192074756395999  0.30004304506416235  1.0000
  H   H2        1.0  0.9839450063818739  0.4807925244609544  0.6999569548108531  1.0000
  H   H3        1.0  0.11964801325262484  0.3332410127938747  0.3712133624403529  1.0000
  H   H4        1.0  0.8803519875600327  0.6667589873066796  0.6287866374346625  1.0000
  H   H5        1.0  0.9061943617861032  0.9180856146469636  0.3325452332736158  1.0000
  H   H6        1.0  0.09380563902655444  0.08191438545359081  0.6674547666013997  1.0000
  H   H7        1.0  0.6634139247310817  0.8297033270434759  0.23563180449276638  1.0000
  H   H8        1.0  0.3365860760815758  0.17029667305707846  0.764368195382249  1.0000
  H   H9        1.0  0.834085234679294  0.566945837110859  0.4484512399690911  1.0000
  H   H10       1.0  0.16591476613336364  0.43305416298969535  0.5515487599059243  1.0000
  H   H11       1.0  0.5840159179766843  0.4804279656887026  0.3545070663163218  1.0000
  H   H12       1.0  0.4159840828359733  0.5195720344118518  0.6454929335586936  1.0000
  H   H13       1.0  0.46358900322598917  0.8531579561404289  0.379815821437786  1.0000
  H   H14       1.0  0.5364109959313904  0.1468420442730117  0.6201841791125197  1.0000
  H   H15       1.0  0.36009843031103805  0.043833761242908685  0.3120846835163037  1.0000
  H   H16       1.0  0.6399015705016194  0.9561662388576456  0.6879153163587117  1.0000
  H   H17       1.0  0.4781163631469847  0.2478278712536656  0.4718597239170589  1.0000
  H   H18       1.0  0.5218836376656728  0.7521721288468888  0.5281402759579565  1.0000
  H   H19       1.0  0.7901693417154174  0.16837823224653198  0.4763360649385651  1.0000
  H   H20       1.0  0.20983065909724016  0.8316217678540224  0.5236639349364504  1.0000
  H   H21       1.0  0.966156681020948  0.14794398346343146  0.21506484769933457  1.0000
  H   H22       1.0  0.03384332005476155  0.8520560169502938  0.7849351528516411  1.0000
  C   C1        1.0  0.08133310946750533  0.6160275508701508  0.08695047354150154  1.0000
  C   C2        1.0  0.9186668894268223  0.3839724492301191  0.9130495263328439  1.0000
  C   C3        1.0  0.18305304872181344  0.4211775838710478  0.0582935700147699  1.0000
  C   C4        1.0  0.8169469501725143  0.5788224162292219  0.9417064298595754  1.0000
  C   C5        1.0  0.902365204209102  0.693458951363518  0.029936027787059682  1.0000
  C   C6        1.0  0.09763479660355547  0.3065410487370364  0.9700639720879557  1.0000
  C   C7        1.0  0.9469744762547214  0.37170387608390154  0.33105712216996636  1.0000
  C   C8        1.0  0.053025524557935924  0.6282961240166528  0.668942877705049  1.0000
  C   C9        1.0  0.7404269086587301  0.9687990569008752  0.2931284694991454  1.0000
  C   C10       1.0  0.25957309023559744  0.031200943199394558  0.7068715303752  1.0000
  C   C11       1.0  0.7442042352102466  0.42401697448236486  0.3933888176939716  1.0000
  C   C12       1.0  0.2557957633677231  0.5759830239366196  0.6066111821813741  1.0000
  C   C13       1.0  0.5304630620737372  0.009379597235671123  0.3536056205526793  1.0000
  C   C14       1.0  0.4695369387389205  0.9906204028648833  0.6463943793223361  1.0000
  C   C15       1.0  0.6337856551202452  0.21220562409048377  0.43075425108677184  1.0000
  C   C16       1.0  0.3662143456924125  0.7877943760100707  0.5692457487882437  1.0000
  N   N1        1.0  0.8320978785135983  0.17741919637416875  0.2583458226453011  1.0000
  N   N2        1.0  0.16790212256211137  0.8225808040395564  0.7416541779056746  1.0000
  F   F1        1.0  0.15175561817480093  0.7330197748929875  0.17337092468413326  1.0000
  F   F2        1.0  0.8482443823214988  0.26698022352628137  0.8266290751918824  1.0000
  F   F3        1.0  0.8074570764406812  0.8831639753033432  0.06260768352214531  1.0000
  F   F4        1.0  0.19254292437197643  0.11683602479721122  0.9373923163528701  1.0000
  I   I1        1.0  0.45951187238323066  0.30341808969817724  0.14574315866331627  1.0000
  I   I2        1.0  0.5404881284294268  0.696581910402377  0.8542568412116992  1.0000
