data_image0
_chemical_formula_structural       H18C10N10O2Cl2I10
_chemical_formula_sum              "H18 C10 N10 O2 Cl2 I10"
_cell_length_a       8.14318229313506
_cell_length_b       10.554022704031649
_cell_length_c       10.45977548814627
_cell_angle_alpha    103.10941698208025
_cell_angle_beta     92.13106836159687
_cell_angle_gamma    100.85256381967392

_space_group_name_H-M_alt    "P 1"
_space_group_IT_number       1

loop_
  _space_group_symop_operation_xyz
  'x, y, z'

loop_
  _atom_site_type_symbol
  _atom_site_label
  _atom_site_symmetry_multiplicity
  _atom_site_fract_x
  _atom_site_fract_y
  _atom_site_fract_z
  _atom_site_occupancy
  H   H1        1.0  0.07187699198462312  0.8229358268581929  0.010095234776621786  1.0000
  H   H2        1.0  0.9281230086716359  0.17706417372688885  0.9899047649886227  1.0000
  H   H3        1.0  0.9872292698820135  0.009869417328447925  0.14598505030324688  1.0000
  H   H4        1.0  0.012770730774245488  0.9901305832566336  0.8540149494619973  1.0000
  H   H5        1.0  0.17728747380485013  0.6377896337498244  0.9752719586422972  1.0000
  H   H6        1.0  0.8227125253875374  0.3622103658687549  0.024728041116605096  1.0000
  H   H7        1.0  0.2244722686244247  0.5639933255295877  0.1060448393805896  1.0000
  H   H8        1.0  0.7755277317963893  0.43600667409002286  0.8939551603816792  1.0000
  H   H9        1.0  0.21853190573730816  0.5889318848453582  0.3506272072032196  1.0000
  H   H10       1.0  0.7814680946835058  0.41106811477425226  0.6493727925590492  1.0000
  H   H11       1.0  0.16699532845209855  0.7094101906547009  0.5933102249774027  1.0000
  H   H12       1.0  0.8330046719687153  0.2905898089649094  0.4066897747848661  1.0000
  H   H13       1.0  0.04838431258297423  0.9178671504495756  0.5775766315863413  1.0000
  H   H14       1.0  0.9516156866094134  0.08213284916900382  0.42242336817256104  1.0000
  H   H15       1.0  0.16262248624148326  0.38449194365039874  0.22697900335709004  1.0000
  H   H16       1.0  0.8373775129509043  0.6155080559681806  0.7730209964018124  1.0000
  H   H17       1.0  0.36012567798771605  0.4349473122508787  0.2589402281363157  1.0000
  H   H18       1.0  0.639874322668543  0.5650526883342031  0.7410597716289287  1.0000
  C   C1        1.0  0.025917416010863958  0.9362507589063088  0.19253768329306617  1.0000
  C   C2        1.0  0.9740825845098422  0.06374924094703836  0.8074623174542601  1.0000
  C   C3        1.0  0.07290289425919878  0.8580592239272322  0.3688403543786062  1.0000
  C   C4        1.0  0.9270971051686341  0.14194077665681837  0.6311596453832717  1.0000
  C   C5        1.0  0.13069270979824102  0.7499450887403718  0.29508004355135903  1.0000
  C   C6        1.0  0.869307290722465  0.2500549111129754  0.7049199571959673  1.0000
  C   C7        1.0  0.13271653062142721  0.73401809974273  0.15734828955945615  1.0000
  C   C8        1.0  0.8672834688064055  0.2659819008413206  0.8426517102024218  1.0000
  C   C9        1.0  0.1466020841457907  0.7412615411462654  0.5031669494880846  1.0000
  C   C10       1.0  0.8533979166103605  0.25873845967255305  0.4968330512622171  1.0000
  N   N1        1.0  0.07941185044529349  0.8339104165894321  0.11387954402532713  1.0000
  N   N2        1.0  0.920588148747094  0.16608958302914728  0.8861204557335753  1.0000
  N   N3        1.0  0.01956672049219472  0.9529897743930597  0.32078267593539506  1.0000
  N   N4        1.0  0.9804332799286192  0.04701022522655074  0.6792173238268738  1.0000
  N   N5        1.0  0.1783714619073793  0.6359500677979661  0.07273721397235332  1.0000
  N   N6        1.0  0.8216285372850083  0.36404993182061324  0.9272627857865491  1.0000
  N   N7        1.0  0.17619137974203508  0.6799670996408259  0.382190440479225  1.0000
  N   N8        1.0  0.8238086207786709  0.3200329002125213  0.6178095602681014  1.0000
  N   N9        1.0  0.08400995457721971  0.8493949222729583  0.4975667160333063  1.0000
  N   N10       1.0  0.9159900446151679  0.1506050773456211  0.502433283725596  1.0000
  O   O1        1.0  0.2556544380585991  0.46498307284894014  0.24482806096394885  1.0000
  O   O2        1.0  0.7443455623622147  0.5350169267706704  0.7551719387983201  1.0000
  Cl  Cl1       1.0  0.05950022650985109  0.7520267543390471  0.8183698532318768  1.0000
  Cl  Cl2       1.0  0.9404997739109627  0.24797324528056336  0.1816301465303921  1.0000
  I   I1        1.0  0.2780735256832116  0.47200024983085054  0.6463235533573324  1.0000
  I   I2        1.0  0.7219264749730474  0.5279997507542311  0.35367644640791196  1.0000
  I   I3        1.0  0.37668382339083206  0.24188553286568118  0.47262580734791293  1.0000
  I   I4        1.0  0.6233161759014476  0.758114466986635  0.5273741933960471  1.0000
  I   I5        1.0  0.49883511961389726  0.02914303475897374  0.2966266333934482  1.0000
  I   I6        1.0  0.5011648798139354  0.9708569658250769  0.7033733663684295  1.0000
  I   I7        1.0  0.4249368869184726  0.17919030870059188  0.06649835830045323  1.0000
  I   I8        1.0  0.5750631135023412  0.8208096909190185  0.9335016414618155  1.0000
  I   I9        1.0  0.3559888668798823  0.3213691964299812  0.8800795601695975  1.0000
  I   I10       1.0  0.6440111323125053  0.6786308031885981  0.1199204395893047  1.0000
