data_image0
_chemical_formula_structural       H48C18N6O12F6S6
_chemical_formula_sum              "H48 C18 N6 O12 F6 S6"
_cell_length_a       11.758879744865597
_cell_length_b       5.2083948420961566
_cell_length_c       15.271080163487174
_cell_angle_alpha    90.0
_cell_angle_beta     106.09686928670978
_cell_angle_gamma    90.0

_space_group_name_H-M_alt    "P 1"
_space_group_IT_number       1

loop_
  _space_group_symop_operation_xyz
  'x, y, z'

loop_
  _atom_site_type_symbol
  _atom_site_label
  _atom_site_symmetry_multiplicity
  _atom_site_fract_x
  _atom_site_fract_y
  _atom_site_fract_z
  _atom_site_occupancy
  H   H1        1.0  0.13998945372834967  0.0577010497689245  0.23048197526001551  1.0000
  H   H2        1.0  0.8600105464127704  0.5577010495676958  0.7695180244302886  1.0000
  H   H3        1.0  0.18919729022338966  0.49938134470489154  0.2900199848969174  1.0000
  H   H4        1.0  0.8108027099177304  0.9993813445036629  0.7099800147933867  1.0000
  H   H5        1.0  0.047694377221106955  0.639341993254075  0.24716906868472605  1.0000
  H   H6        1.0  0.9523056229200131  0.13934199345530365  0.7528309310055782  1.0000
  H   H7        1.0  0.11259621737095699  0.24010043169014272  0.40211459776823083  1.0000
  H   H8        1.0  0.8874037827656343  0.740100431488914  0.5978854025759304  1.0000
  H   H9        1.0  0.9015844686838358  0.5756390348457857  0.34105103441611356  1.0000
  H   H10       1.0  0.0984155314527554  0.07563903504701436  0.6589489659280476  1.0000
  H   H11       1.0  0.9334938821851605  0.3817385548288839  0.4320244002603468  1.0000
  H   H12       1.0  0.06650611795595943  0.8817385565476327  0.5679755994299573  1.0000
  H   H13       1.0  0.9023702821475436  0.2496442780203481  0.32709417577716077  1.0000
  H   H14       1.0  0.09762971798904782  0.7496442778191195  0.6729058245670004  1.0000
  H   H15       1.0  0.6284122911851403  0.7115264342187485  0.6045908211661702  1.0000
  H   H16       1.0  0.3715877089559798  0.21152643441997715  0.39540917852413393  1.0000
  H   H17       1.0  0.4280496964802205  0.2884202533683921  0.7747976656315876  1.0000
  H   H18       1.0  0.5719503036563708  0.7884202531671634  0.22520233471257364  1.0000
  H   H19       1.0  0.3041120262481046  0.4559543164443056  0.7198211283157662  1.0000
  H   H20       1.0  0.6958879738884867  0.955954316243077  0.280178872028395  1.0000
  H   H21       1.0  0.4396263866988518  0.5954884477905218  0.7511487029054101  1.0000
  H   H22       1.0  0.5603736125526281  0.09548844799175042  0.2488512972464342  1.0000
  H   H23       1.0  0.29378928642141555  0.8626421030306848  0.49825536757915545  1.0000
  H   H24       1.0  0.7062107137151757  0.3626421032319135  0.5017446327650058  1.0000
  H   H25       1.0  0.5843936506545631  0.1696117780587593  0.6931650879923719  1.0000
  H   H26       1.0  0.41560634948655706  0.6696117778575307  0.30683491169793226  1.0000
  H   H27       1.0  0.5583065585170718  0.274667252266968  0.5785674452466767  1.0000
  H   H28       1.0  0.4416934416195195  0.7746672520657394  0.4214325550974845  1.0000
  H   H29       1.0  0.3738411697079105  0.49843252839011093  0.5872917469074067  1.0000
  H   H30       1.0  0.6261588295480982  0.9984325281888823  0.4127082525905806  1.0000
  H   H31       1.0  0.5442684971384918  0.9036992226391395  0.857010656529875  1.0000
  H   H32       1.0  0.45573150299809945  0.4036992228403681  0.14298934381428624  1.0000
  H   H33       1.0  0.23852134893328725  0.6196273665575561  0.12310184749663877  1.0000
  H   H34       1.0  0.7614786512078328  0.11962736675878481  0.8768981521936655  1.0000
  H   H35       1.0  0.38201907812230684  0.6995488572701289  0.05003046208030463  1.0000
  H   H36       1.0  0.6179809220142845  0.19954885747135762  0.9499695382638565  1.0000
  H   H37       1.0  0.42803261217413574  0.781916748531488  0.956986235890382  1.0000
  H   H38       1.0  0.5719673879624555  0.2819167487327167  0.043013764453779274  1.0000
  H   H39       1.0  0.42033484092447576  0.9987676256714875  0.03811740494551433  1.0000
  H   H40       1.0  0.5796651592166443  0.49876762587271606  0.9618825947447898  1.0000
  H   H41       1.0  0.16407499107426832  0.3328914190580466  0.7829618619170451  1.0000
  H   H42       1.0  0.8359250090623229  0.8328914188568179  0.21703813842711622  1.0000
  H   H43       1.0  0.09458951706804263  0.04061571682128137  0.9719533256312161  1.0000
  H   H44       1.0  0.9054104830685485  0.5406157166200527  0.028046674712945165  1.0000
  H   H45       1.0  0.21919145713759597  0.0942641744500322  0.06560873119735992  1.0000
  H   H46       1.0  0.7808085421138838  0.5942641742488035  0.9343912689544843  1.0000
  H   H47       1.0  0.21945188742716218  0.7445654808380991  0.9030770227762404  1.0000
  H   H48       1.0  0.7805481118243177  0.24456548103932774  0.09692297737560392  1.0000
  C   C1        1.0  0.09432493439262354  0.46637934404804  0.27919891974926486  1.0000
  C   C2        1.0  0.9056750657439678  0.9663793438468112  0.7208010805948963  1.0000
  C   C3        1.0  0.1297842802775153  0.6434147182764858  0.4360012401188123  1.0000
  C   C4        1.0  0.8702157189784934  0.1434147184777144  0.5639987593791749  1.0000
  C   C5        1.0  0.07248313766450275  0.4219239778517984  0.3723668975616293  1.0000
  C   C6        1.0  0.9275168624720884  0.9219239776505698  0.627633102782532  1.0000
  C   C7        1.0  0.5467836012811664  0.32416568658617634  0.6451173512950874  1.0000
  C   C8        1.0  0.45321639885542486  0.8241656863849477  0.3548826490490739  1.0000
  C   C9        1.0  0.41487034758537694  0.3526505009095642  0.6379723651228922  1.0000
  C   C10       1.0  0.5851296525557431  0.8526505007083356  0.3620276345674119  1.0000
  C   C11       1.0  0.351576736161644  0.09724554404100404  0.6086138525156928  1.0000
  C   C12       1.0  0.6484232639749472  0.5972455438397754  0.39138614782846853  1.0000
  C   C13       1.0  0.17768927865513798  0.954984433937079  0.01236302232550417  1.0000
  C   C14       1.0  0.8223107214859822  0.45498443413830764  0.9876369773647999  1.0000
  C   C15       1.0  0.2602943952208145  0.14267930956266014  0.8916782071386824  1.0000
  C   C16       1.0  0.7397056049203056  0.6426793093614315  0.10832179255162185  1.0000
  C   C17       1.0  0.25577918118035553  0.9048372162397964  0.9490810099387026  1.0000
  C   C18       1.0  0.7442208189607645  0.4048372145210477  0.05091898975160154  1.0000
  N   N1        1.0  0.944284841760871  0.4072574476988624  0.36634057860515495  1.0000
  N   N2        1.0  0.055715157495137516  0.9072574494176111  0.6336594208928321  1.0000
  N   N3        1.0  0.39593089200735354  0.42794650128770906  0.726199750815523  1.0000
  N   N4        1.0  0.604069107248655  0.9279465010864805  0.2738002486824642  1.0000
  N   N5        1.0  0.3787233980590902  0.8396836151231368  0.0009965435166455435  1.0000
  N   N6        1.0  0.6212766020820297  0.33968361340438813  0.9990034561736585  1.0000
  O   O1        1.0  0.06437081208921516  0.8042097012587952  0.45943914219540094  1.0000
  O   O2        1.0  0.9356291871667934  0.3042096995400465  0.5405608573025862  1.0000
  O   O3        1.0  0.24335928769630785  0.6463024140937151  0.4568537235514543  1.0000
  O   O4        1.0  0.7566407124448122  0.14630241429494373  0.5431462761388498  1.0000
  O   O5        1.0  0.31538128078582955  0.9631973174255329  0.6620758411204511  1.0000
  O   O6        1.0  0.6846187193507617  0.4631973176267616  0.33792415922371016  1.0000
  O   O7        1.0  0.3438399867714355  0.042435392611488106  0.5234217626442024  1.0000
  O   O8        1.0  0.6561600133696845  0.5424353924102595  0.47657823704610175  1.0000
  O   O9        1.0  0.158864393049277  0.18466150496626338  0.831000123828201  1.0000
  O   O10       1.0  0.8411356070918431  0.6846615047650347  0.16899987586210316  1.0000
  O   O11       1.0  0.35050576430821456  0.27554308064371297  0.9042858783241748  1.0000
  O   O12       1.0  0.6494942358283767  0.7755430804424843  0.09571412201998632  1.0000
  F   F1        1.0  0.5775413070568863  0.08651159016559086  0.8374327918721692  1.0000
  F   F2        1.0  0.422458693079705  0.5865115899643623  0.162567208471992  1.0000
  F   F3        1.0  0.506146826952962  0.7141276828588281  0.8821371772305373  1.0000
  F   F4        1.0  0.493853173188158  0.21412768306005672  0.11786282245976683  1.0000
  F   F5        1.0  0.8307162474579701  0.9745536204312005  0.2889771190164489  1.0000
  F   F6        1.0  0.16928375268315005  0.4745536206324291  0.7110228806738553  1.0000
  S   S1        1.0  0.04565644854178049  0.21229432935138187  0.1959626557786683  1.0000
  S   S2        1.0  0.9543435515948108  0.7122943291501532  0.8040373445654929  1.0000
  S   S3        1.0  0.632370193143827  0.6116130759237837  0.6871202344199786  1.0000
  S   S4        1.0  0.3676298069972929  0.11161307612501235  0.3128797652703255  1.0000
  S   S5        1.0  0.133083896411031  0.6694445862320106  0.0623618114363737  1.0000
  S   S6        1.0  0.8669161028449777  0.1694445864332393  0.9376381880616135  1.0000
