data_image0
_chemical_formula_structural       H72C68O24P4Cl4
_chemical_formula_sum              "H72 C68 O24 P4 Cl4"
_cell_length_a       11.789734932898435
_cell_length_b       9.29654405441819
_cell_length_c       16.552976319487584
_cell_angle_alpha    90.0
_cell_angle_beta     107.79269366664714
_cell_angle_gamma    90.0

_space_group_name_H-M_alt    "P 1"
_space_group_IT_number       1

loop_
  _space_group_symop_operation_xyz
  'x, y, z'

loop_
  _atom_site_type_symbol
  _atom_site_label
  _atom_site_symmetry_multiplicity
  _atom_site_fract_x
  _atom_site_fract_y
  _atom_site_fract_z
  _atom_site_occupancy
  H   H1        1.0  0.3855295346949687  0.15329751697596727  0.8266636573760608  1.0000
  H   H2        1.0  0.6144704657375522  0.6532975162005076  0.6733363430861208  1.0000
  H   H3        1.0  0.6144704658415585  0.8467024836244504  0.17333634266635925  1.0000
  H   H4        1.0  0.3855295339456517  0.34670248332424164  0.32666365694397403  1.0000
  H   H5        1.0  0.4638585536157269  0.20804402568079286  0.6031304653477778  1.0000
  H   H6        1.0  0.5361414465611161  0.7080440259810017  0.8968695344800548  1.0000
  H   H7        1.0  0.5361414469208002  0.7919559749196249  0.39686953469464237  1.0000
  H   H8        1.0  0.4638585531220877  0.291955974619416  0.10313046555003981  1.0000
  H   H9        1.0  0.3995546956663236  0.439560118908697  0.46274203012355836  1.0000
  H   H10       1.0  0.6004453041208865  0.9395601181332375  0.037257969486774865  1.0000
  H   H11       1.0  0.6004453048702035  0.5604398816917207  0.5372579699188618  1.0000
  H   H12       1.0  0.3995546955623173  0.06043988139151184  0.96274203054332  1.0000
  H   H13       1.0  0.38321354821186465  0.6377884023668053  0.6814180923449584  1.0000
  H   H14       1.0  0.6167864519649784  0.13778840206659643  0.8185819074828743  1.0000
  H   H15       1.0  0.6167864523246626  0.3622115982336125  0.31858190769746175  1.0000
  H   H16       1.0  0.38321354771822536  0.8622115974581528  0.1814180925472204  1.0000
  H   H17       1.0  0.10141543529435387  0.10641216931896867  0.47877802944131  1.0000
  H   H18       1.0  0.8985845644928562  0.6064121696191775  0.02122197016902325  1.0000
  H   H19       1.0  0.8985845652421733  0.8935878302057806  0.5212219706011101  1.0000
  H   H20       1.0  0.10141543493466974  0.39358783098124017  0.9787780292267225  1.0000
  H   H21       1.0  0.3070194332375188  0.969081496012318  0.7300821891565616  1.0000
  H   H22       1.0  0.6929805660860009  0.4690814957121091  0.7699178106589457  1.0000
  H   H23       1.0  0.6929805664456851  0.030918503512431177  0.269917810873533  1.0000
  H   H24       1.0  0.30701943334152515  0.53091850381264  0.2300821887368002  1.0000
  H   H25       1.0  0.31307148308317845  0.7238453387204586  0.767650739000842  1.0000
  H   H26       1.0  0.6869285162403412  0.22384533842024973  0.7323492608146653  1.0000
  H   H27       1.0  0.6869285166000253  0.27615466080429063  0.2323492610292527  1.0000
  H   H28       1.0  0.3130714834428626  0.7761546611044995  0.2676507392154295  1.0000
  H   H29       1.0  0.20273477820941524  0.8330562792653469  0.856304998064381  1.0000
  H   H30       1.0  0.7972652222231056  0.333056278965138  0.6436950023978008  1.0000
  H   H31       1.0  0.7972652214737885  0.16694372133507082  0.14369500196571383  1.0000
  H   H32       1.0  0.20273477831342157  0.6669437205596112  0.3563049976446194  1.0000
  H   H33       1.0  0.03099903146173519  0.7030440744153541  0.8817188923282016  1.0000
  H   H34       1.0  0.9690009678617844  0.20304407411514525  0.6182811074873057  1.0000
  H   H35       1.0  0.9690009682214686  0.2969559261850636  0.11828110770189319  1.0000
  H   H36       1.0  0.030999031821419304  0.7969559264852725  0.38171889254278896  1.0000
  H   H37       1.0  0.9711931977281485  0.46338063314535644  0.8160941350510965  1.0000
  H   H38       1.0  0.028806802448694508  0.9633806323698968  0.6839058647767362  1.0000
  H   H39       1.0  0.028806802552700874  0.5366193674550613  0.18390586435697465  1.0000
  H   H40       1.0  0.9711931972345093  0.03661936715485242  0.3160941352533586  1.0000
  H   H41       1.0  0.08250598120916033  0.35313949902058095  0.7271994621225072  1.0000
  H   H42       1.0  0.9174940189676827  0.8531394993207898  0.7728005377053256  1.0000
  H   H43       1.0  0.9174940184740435  0.6468605015798368  0.2728005379075875  1.0000
  H   H44       1.0  0.08250598156884445  0.14686050127962794  0.2271994623370946  1.0000
  H   H45       1.0  0.053612042852262204  0.4793323856602625  0.4048256472743254  1.0000
  H   H46       1.0  0.946387956934948  0.9793323859604712  0.0951743523360078  1.0000
  H   H47       1.0  0.946387957684265  0.5206676138644868  0.5951743527680947  1.0000
  H   H48       1.0  0.053612042748255866  0.020667614639946395  0.9048256476940869  1.0000
  H   H49       1.0  0.9957754929663025  0.3041495692860412  0.4124319411417802  1.0000
  H   H50       1.0  0.004224506820907638  0.8041495685105816  0.08756805846855298  1.0000
  H   H51       1.0  0.00422450757022464  0.6958504313143765  0.5875680589006398  1.0000
  H   H52       1.0  0.995775492862296  0.19585043101416763  0.9124319415615416  1.0000
  H   H53       1.0  0.14647191826388362  0.3244200202081171  0.4096960941990951  1.0000
  H   H54       1.0  0.8535280817790042  0.8244200194326574  0.09030390604558702  1.0000
  H   H55       1.0  0.8535280822726435  0.6755799803923006  0.590303905843325  1.0000
  H   H56       1.0  0.14647191790419947  0.17557998009209178  0.9096960939845077  1.0000
  H   H57       1.0  0.45316786226572575  0.8535838149692524  0.5704713240368237  1.0000
  H   H58       1.0  0.5468321379111174  0.35358381466904354  0.9295286757910091  1.0000
  H   H59       1.0  0.5468321374174782  0.14641618563116532  0.429528675993271  1.0000
  H   H60       1.0  0.45316786262540987  0.6464161848557056  0.07047132425141113  1.0000
  H   H61       1.0  0.5480778674675773  0.9647638549873262  0.651168370696556  1.0000
  H   H62       1.0  0.45192213270926573  0.4647638557627859  0.8488316291312766  1.0000
  H   H63       1.0  0.4519221330689499  0.03523614453742303  0.3488316293458641  1.0000
  H   H64       1.0  0.548077866973938  0.5352361448376319  0.15116837089881804  1.0000
  H   H65       1.0  0.3408556456229795  0.167231081883718  0.43798523396765543  1.0000
  H   H66       1.0  0.6591443550175541  0.6672310821839269  0.06201476565500318  1.0000
  H   H67       1.0  0.6591443549135477  0.8327689176410312  0.5620147660747646  1.0000
  H   H68       1.0  0.3408556455189731  0.33276891841649087  0.937985234387417  1.0000
  H   H69       1.0  0.3274348602191323  0.97578779242043  0.44132490159557886  1.0000
  H   H70       1.0  0.6725651398237557  0.47578779212022115  0.05867509864910327  1.0000
  H   H71       1.0  0.6725651403173949  0.024212207104319143  0.5586750984468412  1.0000
  H   H72       1.0  0.3274348598594482  0.524212207404528  0.9413249013809915  1.0000
  C   C1        1.0  0.3564526661799284  0.5274005266150322  0.6624206552158276  1.0000
  C   C2        1.0  0.6435473331435914  0.027400526314823332  0.8375793445996796  1.0000
  C   C3        1.0  0.6435473335032755  0.47259947398538554  0.33757934481426716  1.0000
  C   C4        1.0  0.35645266653961244  0.9725994742855943  0.16242065543041503  1.0000
  C   C5        1.0  0.2667997697290077  0.4625836746243586  0.6841777064085932  1.0000
  C   C6        1.0  0.733200229594512  0.9625836738488989  0.815822293406914  1.0000
  C   C7        1.0  0.7332002299541961  0.537416325976059  0.31582229362150144  1.0000
  C   C8        1.0  0.2667997698330141  0.037416325675850216  0.18417770598883185  1.0000
  C   C9        1.0  0.23367968799874084  0.31178368036910237  0.6553963483434875  1.0000
  C   C10       1.0  0.7663203113247788  0.8117836806693113  0.8446036514720198  1.0000
  C   C11       1.0  0.7663203116844629  0.6882163191556467  0.3446036516866073  1.0000
  C   C12       1.0  0.23367968835842495  0.1882163199311065  0.15539634855807488  1.0000
  C   C13       1.0  0.16593506022517787  0.27799865895023096  0.5716105585647123  1.0000
  C   C14       1.0  0.8340649399516652  0.7779986581747713  0.9283894412631204  1.0000
  C   C15       1.0  0.8340649394580258  0.7220013416501868  0.4283894414653824  1.0000
  C   C16       1.0  0.16593506058486204  0.22200134134997787  0.07161055877929978  1.0000
  C   C17       1.0  0.15087828137200035  0.1343791953964105  0.5436968195282208  1.0000
  C   C18       1.0  0.8491217179515193  0.6343791956966194  0.9563031802872864  1.0000
  C   C19       1.0  0.8491217183112034  0.8656208041283386  0.45630318050187396  1.0000
  C   C20       1.0  0.1508782817316845  0.3656208049037984  0.04369681974280819  1.0000
  C   C21       1.0  0.20358080864158407  0.026972295138087497  0.601964312095474  1.0000
  C   C22       1.0  0.796419191535259  0.5269722943626278  0.8980356877323589  1.0000
  C   C23       1.0  0.7964191910416198  0.9730277054623302  0.39803568793462085  1.0000
  C   C24       1.0  0.20358080900126818  0.4730277051621214  0.10196431231006133  1.0000
  C   C25       1.0  0.26663728293772376  0.05516748234590032  0.6862068635180187  1.0000
  C   C26       1.0  0.733362716385796  0.5551674826461092  0.8137931362974886  1.0000
  C   C27       1.0  0.7333627167454799  0.9448325182545173  0.3137931365120761  1.0000
  C   C28       1.0  0.2666372832974079  0.44483251795430856  0.18620686373260606  1.0000
  C   C29       1.0  0.2811980026732455  0.1992569754047091  0.7124220215241734  1.0000
  C   C30       1.0  0.7188019966502741  0.6992569746292494  0.7875779782913339  1.0000
  C   C31       1.0  0.7188019970099583  0.8007430251957086  0.2875779785059212  1.0000
  C   C32       1.0  0.28119800303292963  0.30074302489549976  0.21242202173876093  1.0000
  C   C33       1.0  0.20349051958862518  0.5315522812642942  0.7382501947252071  1.0000
  C   C34       1.0  0.7965094797348945  0.03155228096408536  0.7617498050903001  1.0000
  C   C35       1.0  0.7965094800945786  0.4684477193361235  0.2617498053048875  1.0000
  C   C36       1.0  0.20349051994830938  0.9684477185606638  0.23825019493979463  1.0000
  C   C37       1.0  0.23648374876589154  0.6672939657669635  0.7759458906249058  1.0000
  C   C38       1.0  0.7635162514109515  0.16729396546675465  0.7240541092029268  1.0000
  C   C39       1.0  0.7635162517706355  0.3327060337577857  0.22405410941751425  1.0000
  C   C40       1.0  0.2364837491255757  0.8327060340579945  0.2759458908394933  1.0000
  C   C41       1.0  0.174776489607504  0.7286642574216192  0.826803989981396  1.0000
  C   C42       1.0  0.8252235099716935  0.2286642571214104  0.6731960104684602  1.0000
  C   C43       1.0  0.8252235100756998  0.2713357431787985  0.1731960100486987  1.0000
  C   C44       1.0  0.17477648971151033  0.7713357424033388  0.32680398956163453  1.0000
  C   C45       1.0  0.07862763446189266  0.656145496035274  0.8412145426851375  1.0000
  C   C46       1.0  0.9213723648616271  0.15614549573506506  0.6587854571303697  1.0000
  C   C47       1.0  0.9213723652213112  0.3438545045651438  0.15878545734495725  1.0000
  C   C48       1.0  0.07862763482157677  0.8438545037896841  0.3412145428997249  1.0000
  C   C49       1.0  0.04573143742811962  0.520820471742821  0.8050799763769879  1.0000
  C   C50       1.0  0.9542685621510778  0.020820471442612183  0.6949200240728683  1.0000
  C   C51       1.0  0.9542685622550842  0.4791795288575967  0.19492002365310687  1.0000
  C   C52       1.0  0.045731437532125954  0.9791795291578055  0.30507997595722636  1.0000
  C   C53       1.0  0.10793265426334177  0.45932886296285536  0.7545101922040326  1.0000
  C   C54       1.0  0.8920673461691792  0.9593288621873957  0.745489808258149  1.0000
  C   C55       1.0  0.8920673462731855  0.5406711376375625  0.24548980783838759  1.0000
  C   C56       1.0  0.1079326535140247  0.04067113733735357  0.25451019177194567  1.0000
  C   C57       1.0  0.07590067067756254  0.3718790487909287  0.43184701845567897  1.0000
  C   C58       1.0  0.9240993291096475  0.8718790490911376  0.06815298115465428  1.0000
  C   C59       1.0  0.9240993290056413  0.6281209507338205  0.5681529815744157  1.0000
  C   C60       1.0  0.07590067142687958  0.12812095150928018  0.9318470188877659  1.0000
  C   C61       1.0  0.5114517511268585  0.9490231948943473  0.5825938498666903  1.0000
  C   C62       1.0  0.48854824819666126  0.44902319566980703  0.917406149948817  1.0000
  C   C63       1.0  0.48854824855634543  0.05097680463040185  0.41740615016340443  1.0000
  C   C64       1.0  0.5114517514865424  0.5509768049306107  0.08259385008127769  1.0000
  C   C65       1.0  0.3899698539246939  0.0670357625749994  0.4577995987037682  1.0000
  C   C66       1.0  0.6100301461181941  0.5670357617995397  0.04220040154091401  1.0000
  C   C67       1.0  0.6100301457585099  0.9329642380254184  0.5422004013263265  1.0000
  C   C68       1.0  0.3899698535650098  0.4329642377252095  0.9577995984891807  1.0000
  O   O1        1.0  0.34455356972036694  0.23792263200740843  0.7918095349002113  1.0000
  O   O2        1.0  0.6554464298588305  0.7379226323076173  0.7081904655496449  1.0000
  O   O3        1.0  0.6554464299628369  0.7620773675173407  0.2081904651298834  1.0000
  O   O4        1.0  0.34455356982437335  0.2620773672171319  0.29180953448044983  1.0000
  O   O5        1.0  0.5459756653211578  0.5415153094022592  0.6055884773644934  1.0000
  O   O6        1.0  0.45402433485568533  0.041515310177718937  0.8944115224633393  1.0000
  O   O7        1.0  0.45402433521536945  0.4584846901224899  0.3944115226779267  1.0000
  O   O8        1.0  0.5459756648275186  0.9584846904226989  0.1055884775667554  1.0000
  O   O9        1.0  0.48573959066977135  0.29438949398613684  0.6437558382763722  1.0000
  O   O10       1.0  0.5142604095070716  0.7943894932106772  0.8562441615514604  1.0000
  O   O11       1.0  0.5142604090134324  0.7056105066142809  0.3562441617537225  1.0000
  O   O12       1.0  0.48573959102945546  0.20561050631407202  0.14375583849095963  1.0000
  O   O13       1.0  0.35970982825545605  0.4182342166336706  0.509554785969926  1.0000
  O   O14       1.0  0.6402901710680635  0.9182342169338795  0.9904452138455812  1.0000
  O   O15       1.0  0.6402901714277477  0.5817657828910785  0.49044521406016867  1.0000
  O   O16       1.0  0.3597098286151403  0.0817657825908697  0.00955478618451347  1.0000
  O   O17       1.0  0.11693030649724906  0.3922432646642485  0.521898611106568  1.0000
  O   O18       1.0  0.8830696936795941  0.8922432638887888  0.9781013887212646  1.0000
  O   O19       1.0  0.8830696940392782  0.6077567359361693  0.47810138893585213  1.0000
  O   O20       1.0  0.11693030600360979  0.10775673563596035  0.02189861130883  1.0000
  O   O21       1.0  0.439414254704766  0.0734323051667315  0.5490055260739407  1.0000
  O   O22       1.0  0.5605857446187535  0.5734323054669404  0.9509944737415666  1.0000
  O   O23       1.0  0.5605857449784377  0.9265676943580178  0.45099447395615405  1.0000
  O   O24       1.0  0.43941425506445014  0.4265676940578088  0.04900552628852807  1.0000
  P   P1        1.0  0.4406641086837194  0.44447146442943397  0.6030140474247193  1.0000
  P   P2        1.0  0.5593358917488014  0.9444714647296427  0.8969859530374623  1.0000
  P   P3        1.0  0.5593358909994842  0.5555285350953153  0.39698595260537534  1.0000
  P   P4        1.0  0.44066410878772583  0.05552853587077494  0.10301404700495786  1.0000
  Cl  Cl1       1.0  0.19226233278535054  0.8486970129776662  0.5681108426991843  1.0000
  Cl  Cl2       1.0  0.8077376673914924  0.34869701267745734  0.9318891571286484  1.0000
  Cl  Cl3       1.0  0.8077376668978532  0.15130298762275157  0.4318891573309103  1.0000
  Cl  Cl4       1.0  0.1922623331450347  0.6513029879229605  0.0681108429137718  1.0000
