data_image0
_chemical_formula_structural       H16C20N4O12Cl4
_chemical_formula_sum              "H16 C20 N4 O12 Cl4"
_cell_length_a       10.58112725673105
_cell_length_b       6.1030753971724945
_cell_length_c       10.096785466358826
_cell_angle_alpha    90.0
_cell_angle_beta     107.61222737001046
_cell_angle_gamma    90.0

_space_group_name_H-M_alt    "P 1"
_space_group_IT_number       1

loop_
  _space_group_symop_operation_xyz
  'x, y, z'

loop_
  _atom_site_type_symbol
  _atom_site_label
  _atom_site_symmetry_multiplicity
  _atom_site_fract_x
  _atom_site_fract_y
  _atom_site_fract_z
  _atom_site_occupancy
  H   H1        1.0  0.20006156665460598  0.5778164467104205  0.29856428481412745  1.0000
  H   H2        1.0  0.7999384335454001  0.07781644647877468  0.20143571556439133  1.0000
  H   H3        1.0  0.7999384337214616  0.42218355375287125  0.7014357156093396  1.0000
  H   H4        1.0  0.2000615658886661  0.9221835539845172  0.7985642848695685  1.0000
  H   H5        1.0  0.05486785313509961  0.13323107074454815  0.5889131980922823  1.0000
  H   H6        1.0  0.945132146475028  0.633231070976194  0.9110868023866256  1.0000
  H   H7        1.0  0.9451321462989666  0.8667689297187438  0.4110868023416775  1.0000
  H   H8        1.0  0.05486785390103948  0.3667689294870978  0.08891319803684125  1.0000
  H   H9        1.0  0.1998562062959007  0.4635483532303542  0.6666287787724962  1.0000
  H   H10       1.0  0.8001437942562282  0.9635483534620001  0.8333712216959195  1.0000
  H   H11       1.0  0.8001437940801668  0.5364516455944195  0.33337122165097094  1.0000
  H   H12       1.0  0.1998562061198393  0.036451647001291713  0.16662877872754778  1.0000
  H   H13       1.0  0.06766838406900015  0.4633477068479472  0.7394201534022795  1.0000
  H   H14       1.0  0.9323316164831288  0.9633477070795932  0.760579847066136  1.0000
  H   H15       1.0  0.9323316163070673  0.5366522919768265  0.2605798470211876  1.0000
  H   H16       1.0  0.06766838389293878  0.03665229174518056  0.23942015335733116  1.0000
  C   C1        1.0  0.4243782004507545  0.3216623656508491  0.5341654640238055  1.0000
  C   C2        1.0  0.5756218001013744  0.821662365882495  0.9658345364446098  1.0000
  C   C3        1.0  0.575621799925313  0.6783376348124428  0.46583453639966155  1.0000
  C   C4        1.0  0.4243782002746931  0.17833763458079685  0.03416546397885718  1.0000
  C   C5        1.0  0.3603335851999807  0.47377625407341434  0.4379275078311638  1.0000
  C   C6        1.0  0.6396664146904789  0.9737762543050602  0.06207249150828603  1.0000
  C   C7        1.0  0.6396664148665403  0.5262237463898776  0.5620724915532344  1.0000
  C   C8        1.0  0.36033358537604204  0.0262237461582316  0.9379275078761122  1.0000
  C   C9        1.0  0.5657299912664949  0.33792443740011524  0.6023568999745138  1.0000
  C   C10       1.0  0.4342700080340862  0.837924437631761  0.8976430994653253  1.0000
  C   C11       1.0  0.4342700078580249  0.6620755630631767  0.397643099420377  1.0000
  C   C12       1.0  0.5657299920324348  0.1620755628315307  0.10235689991907279  1.0000
  C   C13       1.0  0.9511403598773788  0.3061853636718531  0.42204450385252756  1.0000
  C   C14       1.0  0.04885963938062608  0.806185363903499  0.07795549653648388  1.0000
  C   C15       1.0  0.048859639556687415  0.6938146367914387  0.5779554965814321  1.0000
  C   C16       1.0  0.9511403600534402  0.19381463655979275  0.9220445038974758  1.0000
  C   C17       1.0  0.09112745539045777  0.47279519950496285  0.6406614586621309  1.0000
  C   C18       1.0  0.9088725448521248  0.9727951997366088  0.8593385407672157  1.0000
  C   C19       1.0  0.9088725446760634  0.527204800958329  0.3593385407222673  1.0000
  C   C20       1.0  0.0911274552143964  0.027204800726683097  0.14066145861718252  1.0000
  N   N1        1.0  0.029264313163808505  0.2913153196212676  0.5520112866184175  1.0000
  N   N2        1.0  0.9707356870787739  0.7913153198529136  0.9479887128109289  1.0000
  N   N3        1.0  0.9707356869027126  0.7086846808420243  0.4479887127659806  1.0000
  N   N4        1.0  0.029264312987747162  0.20868468061037834  0.05201128657346925  1.0000
  O   O1        1.0  0.23105719943269673  0.46538348540079877  0.37615411295618484  1.0000
  O   O2        1.0  0.7689428007673095  0.9653834856324447  0.1238458874223339  1.0000
  O   O3        1.0  0.7689428009433708  0.5346165150624931  0.6238458874672822  1.0000
  O   O4        1.0  0.23105719866675684  0.03461651483084714  0.8761541130116258  1.0000
  O   O5        1.0  0.6301779780505682  0.20748266039555374  0.691008897755401  1.0000
  O   O6        1.0  0.3698220225015607  0.7074826606271997  0.8089911027130144  1.0000
  O   O7        1.0  0.3698220223254993  0.7925173400677381  0.3089911026680662  1.0000
  O   O8        1.0  0.6301779778745068  0.2925173398360922  0.1910088977104526  1.0000
  O   O9        1.0  0.9104037034289076  0.13645487001288348  0.3496671473455419  1.0000
  O   O10       1.0  0.08959629646155197  0.6364548702445294  0.15033285199390797  1.0000
  O   O11       1.0  0.0895962956956121  0.8635451304504085  0.650332852049349  1.0000
  O   O12       1.0  0.9104037036049689  0.36354513021876245  0.8496671473904902  1.0000
  Cl  Cl1       1.0  0.34098222032736036  0.10692330792805316  0.5784185731285838  1.0000
  Cl  Cl2       1.0  0.6590177789732208  0.6069233081596991  0.9215814263112554  1.0000
  Cl  Cl3       1.0  0.6590177797391605  0.8930766925352388  0.4215814262558143  1.0000
  Cl  Cl4       1.0  0.34098222015129903  0.39307669230359277  0.07841857308363548  1.0000
