data_image0
_chemical_formula_structural       H10C12N2O6Cl2
_chemical_formula_sum              "H10 C12 N2 O6 Cl2"
_cell_length_a       6.589617959500356
_cell_length_b       6.9764026591248
_cell_length_c       7.08257851119365
_cell_angle_alpha    99.77317530900525
_cell_angle_beta     97.29812142848047
_cell_angle_gamma    92.89685406537927

_space_group_name_H-M_alt    "P 1"
_space_group_IT_number       1

loop_
  _space_group_symop_operation_xyz
  'x, y, z'

loop_
  _atom_site_type_symbol
  _atom_site_label
  _atom_site_symmetry_multiplicity
  _atom_site_fract_x
  _atom_site_fract_y
  _atom_site_fract_z
  _atom_site_occupancy
  H   H1        1.0  0.654613443435727  0.3291982735400291  0.5935532611802949  1.0000
  H   H2        1.0  0.3453865556139209  0.6708017267250411  0.40644673779708973  1.0000
  H   H3        1.0  0.22759092068354037  0.9463363042244206  0.25634591987439925  1.0000
  H   H4        1.0  0.7724090800960189  0.05366369630769369  0.7436540805488222  1.0000
  H   H5        1.0  0.1521293397571868  0.9567979999194781  0.4868960836706431  1.0000
  H   H6        1.0  0.8478706610223724  0.043202000612636134  0.5131039167525786  1.0000
  H   H7        1.0  0.5988908911745117  0.20162642636446287  0.11941684583137042  1.0000
  H   H8        1.0  0.4011091080127556  0.7983735727328658  0.8805831545994266  1.0000
  H   H9        1.0  0.9323057750555281  0.6879720293574618  0.6462486211029  1.0000
  H   H10       1.0  0.06769422420653853  0.31202797117384584  0.35375137932097156  1.0000
  C   C1        1.0  0.3894725667131705  0.16913756803701246  0.4735570567578738  1.0000
  C   C2        1.0  0.6105274323364775  0.830862432228058  0.526442942219511  1.0000
  C   C3        1.0  0.2868373581896717  0.9659001525808838  0.4110731574429727  1.0000
  C   C4        1.0  0.7131626425150881  0.034099846517251405  0.5889268429871742  1.0000
  C   C5        1.0  0.3025857255011029  0.5037724897974859  0.8919815902455225  1.0000
  C   C6        1.0  0.6974142749912382  0.49622750903441204  0.10801840873813746  1.0000
  C   C7        1.0  0.3630163158315436  0.3351646963479099  0.9616003834026472  1.0000
  C   C8        1.0  0.636983684735597  0.6648353039179672  0.038399615574087435  1.0000
  C   C9        1.0  0.5554741708436758  0.3337543672182715  0.0677901358618589  1.0000
  C   C10       1.0  0.4445258299358836  0.6662456333138428  0.9322098645613628  1.0000
  C   C11       1.0  0.09561052779427594  0.5203946944568801  0.7846743838220264  1.0000
  C   C12       1.0  0.9043894729852833  0.4796053060752342  0.21532561660119523  1.0000
  N   N1        1.0  0.5848286422041004  0.19068867406923423  0.5539629837069575  1.0000
  N   N2        1.0  0.4151713570579662  0.8093113264620735  0.4460370167169142  1.0000
  O   O1        1.0  0.28918404109956725  0.3137554092140252  0.4487473962598439  1.0000
  O   O2        1.0  0.7108159596799921  0.686244591318089  0.5512526041633776  1.0000
  O   O3        1.0  0.9508357086486329  0.39744117286694536  0.7685373322902879  1.0000
  O   O4        1.0  0.04916429053863438  0.6025588262303833  0.23146266814050914  1.0000
  O   O5        1.0  0.08151365843317925  0.6835124800669411  0.710888373725282  1.0000
  O   O6        1.0  0.9184863408288876  0.3164875204643666  0.28911162669858975  1.0000
  Cl  Cl1       1.0  0.21037308692473616  0.11872927106065007  0.9159614460616874  1.0000
  Cl  Cl2       1.0  0.789626913854823  0.8812707294714642  0.08403855436153412  1.0000
