data_image0
_chemical_formula_structural       H32C36N4O16Cl4
_chemical_formula_sum              "H32 C36 N4 O16 Cl4"
_cell_length_a       11.730347186342406
_cell_length_b       5.42565660563265
_cell_length_c       14.346988345119511
_cell_angle_alpha    90.0
_cell_angle_beta     98.53431826021453
_cell_angle_gamma    90.0

_space_group_name_H-M_alt    "P 1"
_space_group_IT_number       1

loop_
  _space_group_symop_operation_xyz
  'x, y, z'

loop_
  _atom_site_type_symbol
  _atom_site_label
  _atom_site_symmetry_multiplicity
  _atom_site_fract_x
  _atom_site_fract_y
  _atom_site_fract_z
  _atom_site_occupancy
  H   H1        1.0  0.8917393747566036  0.1297986587040709  0.9559807476749989  1.0000
  H   H2        1.0  0.391739374673172  0.37020134077685374  0.4559807479254777  1.0000
  H   H3        1.0  0.10826062455738156  0.8702013421008732  0.044019251821881135  1.0000
  H   H4        1.0  0.6082606247661247  0.6297986581849955  0.5440192522762136  1.0000
  H   H5        1.0  0.882269747749457  0.4917675378183805  0.8543335582170251  1.0000
  H   H6        1.0  0.3822697476660251  0.008232463505639007  0.35433355846750386  1.0000
  H   H7        1.0  0.11773025254271806  0.5082324629865635  0.14566644198682857  1.0000
  H   H8        1.0  0.6177302526261498  0.9917675372993051  0.6456664417363497  1.0000
  H   H9        1.0  0.01710940833789264  0.3498273145465095  0.8557177651914287  1.0000
  H   H10       1.0  0.517109407797657  0.15017268677751  0.35571776474770195  1.0000
  H   H11       1.0  0.9828905919542822  0.6501726862584346  0.14428223501242482  1.0000
  H   H12       1.0  0.48289059151632807  0.8498273140274342  0.6442822347491779  1.0000
  H   H13       1.0  0.7438704879387493  0.8313734001000294  0.8459456568547842  1.0000
  H   H14       1.0  0.2438704878553177  0.6686266001858394  0.3459456571052631  1.0000
  H   H15       1.0  0.2561295113752358  0.16862659886181985  0.15405434264209575  1.0000
  H   H16       1.0  0.7561295115839791  0.33137340061910475  0.6540543430964283  1.0000
  H   H17       1.0  0.8050854281910191  0.887770434088936  0.09724698875525631  1.0000
  H   H18       1.0  0.3050854286059432  0.6122295661969328  0.5972469884941718  1.0000
  H   H19       1.0  0.1949145712482776  0.11222956671600819  0.9027530114464349  1.0000
  H   H20       1.0  0.6949145715609202  0.3877704327649164  0.40275301100487043  1.0000
  H   H21       1.0  0.727196702846662  0.5821381188630737  0.20044069193861117  1.0000
  H   H22       1.0  0.22719670240870793  0.9178618814227951  0.7004406916753644  1.0000
  H   H23       1.0  0.27280329744551285  0.41786188009877556  0.7995593082652424  1.0000
  H   H24       1.0  0.772803297883467  0.08213811938214902  0.2995593085284892  1.0000
  H   H25       1.0  0.5635935595798749  0.19033141333123252  0.9548028479484018  1.0000
  H   H26       1.0  0.06359355949644326  0.30966858614969206  0.4548028481988806  1.0000
  H   H27       1.0  0.43640644071229995  0.8096685874737116  0.04519715225545189  1.0000
  H   H28       1.0  0.9364064407957315  0.6903314128121572  0.545197152004973  1.0000
  H   H29       1.0  0.5249626557083293  0.3321826593538801  0.7233903466896816  1.0000
  H   H30       1.0  0.024962655624897672  0.1678173401270445  0.22339034694016044  1.0000
  H   H31       1.0  0.47503734373096745  0.6678173396079691  0.2766096535120097  1.0000
  H   H32       1.0  0.9750373438143991  0.8321826606778996  0.7766096532615309  1.0000
  C   C1        1.0  0.9757841197581266  0.3179428104994959  0.06705069533214691  1.0000
  C   C2        1.0  0.47578411932017245  0.18205718898142864  0.5670506950689002  1.0000
  C   C3        1.0  0.024215880534048273  0.6820571884623532  0.9329493048717067  1.0000
  C   C4        1.0  0.5242158809720024  0.8179428118235154  0.4329493051349535  1.0000
  C   C5        1.0  0.9629142302896938  0.4470159828180272  0.9003857738101709  1.0000
  C   C6        1.0  0.4629142300809505  0.05298401850599235  0.4003857733558383  1.0000
  C   C7        1.0  0.037085770002481144  0.552984017986917  0.09961422639368278  1.0000
  C   C8        1.0  0.5370857700859129  0.9470159822989518  0.5996142261432039  1.0000
  C   C9        1.0  0.6607718806370692  0.5122078878185753  0.9280430727237897  1.0000
  C   C10       1.0  0.16077188055363756  0.9877921106241985  0.4280430729742686  1.0000
  C   C11       1.0  0.33922811952979415  0.487792111143274  0.07195692677525252  1.0000
  C   C12       1.0  0.8392281188856593  0.012207888337650644  0.5719569272274228  1.0000
  C   C13       1.0  0.7293420646511332  0.7106943085924213  0.9684252342359317  1.0000
  C   C14       1.0  0.22934206542057964  0.7893056898503523  0.468425234488573  1.0000
  C   C15       1.0  0.27065793466285204  0.2893056903694278  0.03157476526094814  1.0000
  C   C16       1.0  0.7706579348715952  0.2106943091114968  0.5315747657152806  1.0000
  C   C17       1.0  0.7530070239478731  0.7334879977233574  0.06670294515004134  1.0000
  C   C18       1.0  0.25300702436279715  0.7665120025625113  0.5667029448889569  1.0000
  C   C19       1.0  0.24699297549142366  0.26651200308158673  0.9332970550516501  1.0000
  C   C20       1.0  0.7469929758040662  0.2334879982424328  0.43329705461008544  1.0000
  C   C21       1.0  0.7095577142109276  0.5619189863278312  0.12413181448702204  1.0000
  C   C22       1.0  0.20955771377297355  0.9380810139580376  0.6241318142237753  1.0000
  C   C23       1.0  0.29044228608124717  0.43808101447711284  0.8758681857168314  1.0000
  C   C24       1.0  0.7904422855410116  0.06191898500381171  0.3758681852731047  1.0000
  C   C25       1.0  0.6423154654997935  0.36528832435551833  0.08387881546515615  1.0000
  C   C26       1.0  0.14231546604002906  0.13471167512540627  0.583878815908883  1.0000
  C   C27       1.0  0.3576845338141917  0.6347116764494257  0.9161211840317238  1.0000
  C   C28       1.0  0.8576845342521459  0.8652883238364429  0.41612118429497064  1.0000
  C   C29       1.0  0.6174147880489642  0.34002439411384083  0.9868575626837677  1.0000
  C   C30       1.0  0.11741478796553255  0.15997560721017864  0.4868575629342466  1.0000
  C   C31       1.0  0.382585211265021  0.6599756066911032  0.013142436813112274  1.0000
  C   C32       1.0  0.8825852114737642  0.8400243935947654  0.5131424372674448  1.0000
  C   C33       1.0  0.6321420110927995  0.49433012166962637  0.8247931886690281  1.0000
  C   C34       1.0  0.1321420108840563  0.005669879654393084  0.32479318821469566  1.0000
  C   C35       1.0  0.36785798919937535  0.5056698791353177  0.17520681153482545  1.0000
  C   C36       1.0  0.867857989282807  0.9943301211505511  0.6752068112843466  1.0000
  N   N1        1.0  0.9393777273489198  0.2854422943745101  0.9756555840926926  1.0000
  N   N2        1.0  0.43937772726548824  0.2145577051064145  0.47565558434317157  1.0000
  N   N3        1.0  0.06062227294325506  0.7145577045873391  0.024344416111160914  1.0000
  N   N4        1.0  0.5606222730266868  0.7854422938554346  0.524344415860682  1.0000
  O   O1        1.0  0.9573850803684021  0.15812879663436788  0.12690716895947413  1.0000
  O   O2        1.0  0.45738508090863755  0.3418712028465567  0.6269071694032009  1.0000
  O   O3        1.0  0.04261491894558315  0.8418712023274812  0.8730928305374058  1.0000
  O   O4        1.0  0.5426149193835372  0.6581287961152924  0.37309283080065264  1.0000
  O   O5        1.0  0.7725898854889881  0.8807537939351013  0.9137340462973114  1.0000
  O   O6        1.0  0.27258988540555645  0.6192462063507674  0.4137340465477901  1.0000
  O   O7        1.0  0.2274101146778752  0.11924620686984279  0.08626595320173097  1.0000
  O   O8        1.0  0.7274101148866184  0.38075379261108183  0.5862659536560635  1.0000
  O   O9        1.0  0.6745190366334242  0.639651710798849  0.7710323059452298  1.0000
  O   O10       1.0  0.17451903654999243  0.8603482894870198  0.27103230619570867  1.0000
  O   O11       1.0  0.32548096353343925  0.36034828816300024  0.22896769355381244  1.0000
  O   O12       1.0  0.8254809637421825  0.13965171131792434  0.728967694008145  1.0000
  O   O13       1.0  0.558627425287333  0.31800356443656924  0.7944910350922268  1.0000
  O   O14       1.0  0.05862742507858978  0.18199643504435534  0.2944910346378944  1.0000
  O   O15       1.0  0.44137257500484184  0.6819964345252799  0.20550896511162675  1.0000
  O   O16       1.0  0.9413725750882735  0.8180035657605887  0.7055089648611478  1.0000
  Cl  Cl1       1.0  0.5862080360998854  0.15451517317363397  0.15597693044226188  1.0000
  Cl  Cl2       1.0  0.08620803651480938  0.3454848263072906  0.6559769301811773  1.0000
  Cl  Cl3       1.0  0.4137919633394114  0.8454848257882153  0.8440230697594294  1.0000
  Cl  Cl4       1.0  0.9137919637773655  0.6545151744976535  0.3440230700226763  1.0000
