data_image0
_chemical_formula_structural       H43C42N2O2I3
_chemical_formula_sum              "H43 C42 N2 O2 I3"
_cell_length_a       9.558128033943426
_cell_length_b       9.916485073990941
_cell_length_c       11.738803689771878
_cell_angle_alpha    74.90914080939383
_cell_angle_beta     66.41055657875407
_cell_angle_gamma    71.87070922808363

_space_group_name_H-M_alt    "P 1"
_space_group_IT_number       1

loop_
  _space_group_symop_operation_xyz
  'x, y, z'

loop_
  _atom_site_type_symbol
  _atom_site_label
  _atom_site_symmetry_multiplicity
  _atom_site_fract_x
  _atom_site_fract_y
  _atom_site_fract_z
  _atom_site_occupancy
  H   H1        1.0  0.018137277638045117  0.6290343773348822  0.8078933157194564  1.0000
  H   H2        1.0  0.9818627230432728  0.37096562289842117  0.19210668392800628  1.0000
  H   H3        1.0  0.8430259203992205  0.6473137026967445  0.7789099840507121  1.0000
  H   H4        1.0  0.15697407915755215  0.35268629631685433  0.2210900165359316  1.0000
  H   H5        1.0  0.7252965007973101  0.44501399088405524  0.8277215703302918  1.0000
  H   H6        1.0  0.27470349842395936  0.554986009190987  0.1722784302542957  1.0000
  H   H7        1.0  0.6784958028790864  0.21582291444795595  0.9680681317261409  1.0000
  H   H8        1.0  0.321504196342183  0.7841770856270861  0.03193186885844668  1.0000
  H   H9        1.0  0.8600096295799592  0.07574065349562487  0.08361634331916813  1.0000
  H   H10       1.0  0.13999037110135862  0.9242593467376784  0.9163836563282945  1.0000
  H   H11       1.0  0.09099127061696165  0.16359817162760046  0.05552239185827233  1.0000
  H   H12       1.0  0.9090087300643565  0.8364018286057027  0.9444776077891904  1.0000
  H   H13       1.0  0.13443919596132742  0.394723204959803  0.9189166680535356  1.0000
  H   H14       1.0  0.8655608047199905  0.6052767952735004  0.08108333159392717  1.0000
  H   H15       1.0  0.11512613647662814  0.6892413509437005  0.4648454100998723  1.0000
  H   H16       1.0  0.8848738637911484  0.3107586491244133  0.5351545904886472  1.0000
  H   H17       1.0  0.9118628588531453  0.7259727302246639  0.5549901002402188  1.0000
  H   H18       1.0  0.08813714036812413  0.2740272698503783  0.4450099003443687  1.0000
  H   H19       1.0  0.7916018804041897  0.9046883916926095  0.6840321891068377  1.0000
  H   H20       1.0  0.2083981202771281  0.09531160854069379  0.31596781054062506  1.0000
  H   H21       1.0  0.8045161025419639  0.10267707505579839  0.7670088913600193  1.0000
  H   H22       1.0  0.19548389667930546  0.8973229250192437  0.2329911092245683  1.0000
  H   H23       1.0  0.06358626269383771  0.14210664848793875  0.7350115175924589  1.0000
  H   H24       1.0  0.9364137369409732  0.8578933517522928  0.2649884820510718  1.0000
  H   H25       1.0  0.3102196774131386  0.9788222670650077  0.6188153633944816  1.0000
  H   H26       1.0  0.6897803222216726  0.021177733175223697  0.381184636249049  1.0000
  H   H27       1.0  0.2978597455007795  0.783798626767653  0.5326160274156259  1.0000
  H   H28       1.0  0.702140254766997  0.21620137330046102  0.4673839731728937  1.0000
  H   H29       1.0  0.26653373202220415  0.5684659896223558  0.6428309789763861  1.0000
  H   H30       1.0  0.7334662682455722  0.43153401044575806  0.35716902161213354  1.0000
  H   H31       1.0  0.21983144727974976  0.3969244058051085  0.6997483970090663  1.0000
  H   H32       1.0  0.7801685534015682  0.6030755944281949  0.3002516026383964  1.0000
  H   H33       1.0  0.39393954821614885  0.6403008084026779  0.4049242345258673  1.0000
  H   H34       1.0  0.6060604524651689  0.3596991918306253  0.5950757651215955  1.0000
  H   H35       1.0  0.5476999855856364  0.5561083982590788  0.20234828702020063  1.0000
  H   H36       1.0  0.45230001404917464  0.4438916019811528  0.79765171262333  1.0000
  H   H37       1.0  0.5662090658423903  0.307236177935558  0.17730487682115115  1.0000
  H   H38       1.0  0.4337909337924206  0.6927638223046734  0.8226951228223796  1.0000
  H   H39       1.0  0.42351318536044635  0.14717871729365653  0.3582539888909809  1.0000
  H   H40       1.0  0.5764868149073299  0.8528212827744576  0.6417460116975386  1.0000
  H   H41       1.0  0.2645703058723456  0.23456839071405994  0.5636038243409079  1.0000
  H   H42       1.0  0.7354296943954308  0.765431609354054  0.4363961762476117  1.0000
  H   H43       1.0  0.9999999995326571  0.5000000001317096  0.5000000003361439  1.0000
  C   C1        1.0  0.9558210743617612  0.5749265877311317  0.7797411274143214  1.0000
  C   C2        1.0  0.04417892485950827  0.4250734123439105  0.220258873170266  1.0000
  C   C3        1.0  0.9325199102873056  0.43538987891614644  0.8637077474077096  1.0000
  C   C4        1.0  0.06748009072951543  0.5646101202557134  0.13629225224180946  1.0000
  C   C5        1.0  0.8040313524749656  0.383901064028805  0.8790620852112981  1.0000
  C   C6        1.0  0.19596864715984527  0.6160989362114265  0.12093791443223265  1.0000
  C   C7        1.0  0.7781970996805586  0.2553756260172876  0.9575869306291714  1.0000
  C   C8        1.0  0.2218028999542524  0.7446243742229439  0.042413069014359185  1.0000
  C   C9        1.0  0.8808453228299092  0.1761077689206461  0.02191950875559972  1.0000
  C   C10       1.0  0.11915467714040495  0.823892230258142  0.9780804908899873  1.0000
  C   C11       1.0  0.009369528772009868  0.22609926647708947  0.0069914985249910685  1.0000
  C   C12       1.0  0.9906304719093082  0.7739007337562139  0.9930085011224716  1.0000
  C   C13       1.0  0.034620749477055304  0.355650606916392  0.9287341196758375  1.0000
  C   C14       1.0  0.9653792512042627  0.6443493933169113  0.07126587997162519  1.0000
  C   C15       1.0  0.02933671826651035  0.7063891370830991  0.5585238290683783  1.0000
  C   C16       1.0  0.9706632824148076  0.29361086315020424  0.44147617057908456  1.0000
  C   C17       1.0  0.043362043964686965  0.8265419446228037  0.6057017957612383  1.0000
  C   C18       1.0  0.9566379556701242  0.1734580556174277  0.3942982038822924  1.0000
  C   C19       1.0  0.905993281368709  0.9196656682264677  0.670262181114428  1.0000
  C   C20       1.0  0.09400671889906743  0.08033433184164639  0.32973781947409153  1.0000
  C   C21       1.0  0.9131088873390212  0.03276661630667247  0.7160456528302398  1.0000
  C   C22       1.0  0.08689111229579  0.967233383933559  0.28395434681329085  1.0000
  C   C23       1.0  0.05843453654852744  0.05441635170370127  0.6979945732719273  1.0000
  C   C24       1.0  0.9415654637192489  0.9455836483644127  0.30200542731659236  1.0000
  C   C25       1.0  0.1961716931634701  0.9636111052290345  0.6322904205574167  1.0000
  C   C26       1.0  0.8038283064713408  0.036388895011197055  0.3677095790861141  1.0000
  C   C27       1.0  0.1887781828603434  0.8511641176544003  0.5857997427660139  1.0000
  C   C28       1.0  0.8112218171099708  0.14883588152438793  0.4142002568795731  1.0000
  C   C29       1.0  0.22137334637320674  0.49012090142313836  0.6249628229749371  1.0000
  C   C30       1.0  0.7786266535971073  0.5098790977556499  0.3750371766706498  1.0000
  C   C31       1.0  0.3161398279292501  0.443283074663661  0.4991295279772892  1.0000
  C   C32       1.0  0.6838601727520681  0.5567169255696424  0.5008704716701735  1.0000
  C   C33       1.0  0.39699226849730657  0.5324642260921785  0.3963086214367083  1.0000
  C   C34       1.0  0.6030077321840114  0.4675357741411248  0.6036913782107545  1.0000
  C   C35       1.0  0.48566142292098524  0.4843227711708553  0.2807717803655838  1.0000
  C   C36       1.0  0.5143385763002841  0.5156772289041869  0.7192282202190036  1.0000
  C   C37       1.0  0.4952135365505232  0.3458499986165064  0.26673314419173333  1.0000
  C   C38       1.0  0.5047864637172533  0.6541500014516076  0.7332668563967862  1.0000
  C   C39       1.0  0.4151747968825501  0.25586239985296544  0.3688059323479365  1.0000
  C   C40       1.0  0.5848252037987679  0.7441376003803378  0.6311940672995262  1.0000
  C   C41       1.0  0.32698120068911174  0.30437950270811737  0.4838544599276726  1.0000
  C   C42       1.0  0.6730187999922062  0.695620497525186  0.5161455397197903  1.0000
  N   N1        1.0  0.04907190485152625  0.558695616744592  0.6416466671063561  1.0000
  N   N2        1.0  0.9509280947832849  0.4413043834956394  0.35835333253717466  1.0000
  O   O1        1.0  0.9862259098890325  0.47009852577403133  0.6103455381675246  1.0000
  O   O2        1.0  0.013774090714246987  0.5299014732326394  0.38965446242305124  1.0000
  I   I1        1.0  0.5534074659048223  0.8834894378820061  0.23966967875637557  1.0000
  I   I2        1.0  0.44659253477649563  0.11651056235129727  0.7603303208910873  1.0000
  I   I3        1.0  0.4999999993869727  4.3999732492382427e-10  0.9999999999531557  1.0000
