data_image0
_chemical_formula_structural       H20C32N4O2F12I12
_chemical_formula_sum              "H20 C32 N4 O2 F12 I12"
_cell_length_a       9.195748856932559
_cell_length_b       9.274234935027685
_cell_length_c       14.621022109002853
_cell_angle_alpha    104.15864740081632
_cell_angle_beta     94.44041271315085
_cell_angle_gamma    95.8376736709462

_space_group_name_H-M_alt    "P 1"
_space_group_IT_number       1

loop_
  _space_group_symop_operation_xyz
  'x, y, z'

loop_
  _atom_site_type_symbol
  _atom_site_label
  _atom_site_symmetry_multiplicity
  _atom_site_fract_x
  _atom_site_fract_y
  _atom_site_fract_z
  _atom_site_occupancy
  H   H1        1.0  0.33464553690511145  0.6162469329910794  0.44155507126035315  1.0000
  H   H2        1.0  0.6653544626557207  0.3837530675948805  0.5584449291493478  1.0000
  H   H3        1.0  0.24467514259821266  0.4477577308160476  0.4230598334035604  1.0000
  H   H4        1.0  0.7553248568464507  0.552242268682822  0.5769401669979569  1.0000
  H   H5        1.0  0.22686428243980933  0.4065672342184507  0.10630535343470275  1.0000
  H   H6        1.0  0.7731357180800797  0.5934327660882506  0.8936946462582113  1.0000
  H   H7        1.0  0.4094547984036511  0.49515762849975786  0.14803191170672478  1.0000
  H   H8        1.0  0.5905452020000691  0.5048423707198533  0.8519680879780057  1.0000
  H   H9        1.0  0.2422983701215615  0.5810119784949289  0.2696285527975072  1.0000
  H   H10       1.0  0.7577016293125272  0.4189880218182937  0.7303714469029052  1.0000
  H   H11       1.0  0.17689639225231882  0.3922256445438605  0.26697972507190687  1.0000
  H   H12       1.0  0.8231036083943141  0.6077743560355782  0.7330202753302957  1.0000
  H   H13       1.0  0.36118297131311383  0.2361091046693634  0.32464592818945687  1.0000
  H   H14       1.0  0.6388170281209747  0.7638908956438591  0.6753540715109557  1.0000
  H   H15       1.0  0.5415043235906778  0.32860378416601776  0.36673711256811903  1.0000
  H   H16       1.0  0.45849567584341094  0.6713962161472048  0.6332628871322935  1.0000
  H   H17       1.0  0.5827671871976985  0.35026207250262603  0.2026185956667384  1.0000
  H   H18       1.0  0.41723281344893426  0.6497379280768125  0.7973814047354639  1.0000
  H   H19       1.0  0.5216549322803962  0.1601881945238194  0.1996538812412193  1.0000
  H   H20       1.0  0.47834506823949297  0.839811805782882  0.8003461184516947  1.0000
  C   C1        1.0  0.04881245423123225  0.08234889139560908  0.3904988396588632  1.0000
  C   C2        1.0  0.9511875452028563  0.9176511089176136  0.6095011600415493  1.0000
  C   C3        1.0  0.9055664575457851  0.11649330142125523  0.37833609023726733  1.0000
  C   C4        1.0  0.094433542974104  0.8835066988854461  0.6216639094556468  1.0000
  C   C5        1.0  0.08138363480204389  0.9368288200963287  0.383993257355346  1.0000
  C   C6        1.0  0.91861636572842  0.0631711793960197  0.616006743038673  1.0000
  C   C7        1.0  0.816196872028773  0.8512459002631939  0.3590575373524027  1.0000
  C   C8        1.0  0.18380312728914655  0.14875409896293826  0.6409424623398261  1.0000
  C   C9        1.0  0.7917389101804266  0.9983298738329115  0.36189628074457364  1.0000
  C   C10       1.0  0.208261089253662  0.001670126480311009  0.638103718955839  1.0000
  C   C11       1.0  0.9624227279765327  0.8240027597564649  0.36896245928226296  1.0000
  C   C12       1.0  0.037577271341386824  0.1759972394696674  0.6310375404099658  1.0000
  C   C13       1.0  0.9768257188989771  0.7373182794553789  0.1259058732882832  1.0000
  C   C14       1.0  0.02317428163148681  0.26268172003696943  0.8740941271057356  1.0000
  C   C15       1.0  0.719907281760814  0.6528139770509287  0.09631919779410134  1.0000
  C   C16       1.0  0.28009271780001826  0.3471860235350312  0.9036808026155996  1.0000
  C   C17       1.0  0.8055763133845999  0.9101443739220113  0.1131237198116168  1.0000
  C   C18       1.0  0.1944236871352893  0.0898556263846901  0.8868762798812972  1.0000
  C   C19       1.0  0.6871286058663114  0.7973025550633516  0.09878534552051818  1.0000
  C   C20       1.0  0.31287139465357783  0.20269744524334982  0.9012146541723959  1.0000
  C   C21       1.0  0.9516056670047202  0.8830307214034445  0.1251938801957915  1.0000
  C   C22       1.0  0.048394333515169065  0.11696927890325685  0.8748061194971226  1.0000
  C   C23       1.0  0.8630797232186753  0.6197432420604949  0.11112179096804871  1.0000
  C   C24       1.0  0.1369202771850449  0.3802567571591162  0.8888782087166818  1.0000
  C   C25       1.0  0.32014278269317326  0.4156017353408969  0.15973167983252215  1.0000
  C   C26       1.0  0.6798572178267159  0.5843982649658046  0.840268319860392  1.0000
  C   C27       1.0  0.2736751421426505  0.46742552907628254  0.25848092279877993  1.0000
  C   C28       1.0  0.7263248583878134  0.5325744704160659  0.7415190775952389  1.0000
  C   C29       1.0  0.4472977666313335  0.3209427434054144  0.31433306716048065  1.0000
  C   C30       1.0  0.5527022340152993  0.6790572571740242  0.6856669332417218  1.0000
  C   C31       1.0  0.4900104028463251  0.27371863268016383  0.21408550738524396  1.0000
  C   C32       1.0  0.5099895978003078  0.7262813678992749  0.7859144930169586  1.0000
  N   N1        1.0  0.347502550864909  0.5048207714182928  0.42516837891080783  1.0000
  N   N2        1.0  0.6524974496655548  0.4951792280740557  0.5748316214832111  1.0000
  N   N3        1.0  0.39387119152484285  0.46847901544459997  0.3316536373280178  1.0000
  N   N4        1.0  0.606128809005621  0.5315209840477485  0.6683463630660013  1.0000
  O   O1        1.0  0.3678681713985254  0.2693770425413735  0.1449121317191487  1.0000
  O   O2        1.0  0.6321318280355631  0.730622957771849  0.8550878679812638  1.0000
  F   F1        1.0  0.9913431616801297  0.6815461961046848  0.3638907114775114  1.0000
  F   F2        1.0  0.008656838723590405  0.31845380311492627  0.636109288207219  1.0000
  F   F3        1.0  0.16100071179437292  0.19535362623293914  0.40913679969545236  1.0000
  F   F4        1.0  0.8389992887255161  0.8046463740737622  0.5908631999974617  1.0000
  F   F5        1.0  0.6516623180275559  0.02896311053205798  0.3485160385396222  1.0000
  F   F6        1.0  0.3483376826190769  0.9710368900473807  0.6514839618625803  1.0000
  F   F7        1.0  0.11697424444793653  0.7086037005111215  0.1411661501825383  1.0000
  F   F8        1.0  0.8830257559557837  0.29139629870848965  0.8588338495021922  1.0000
  F   F9        1.0  0.6088569433751214  0.5396798776839632  0.07937946676838521  1.0000
  F   F10       1.0  0.39114305605896726  0.46032012262925937  0.9206205329320273  1.0000
  F   F11       1.0  0.7771766462200806  0.05174106272232943  0.11592063539648165  1.0000
  F   F12       1.0  0.22282335429980854  0.9482589375843719  0.8840793642964323  1.0000
  I   I1        1.0  0.6339766944238625  0.6788532323143726  0.3438758399669267  1.0000
  I   I2        1.0  0.3660233059798577  0.3211467669052385  0.6561241597178038  1.0000
  I   I3        1.0  0.8686713915639981  0.336783825251892  0.3834098273436214  1.0000
  I   I4        1.0  0.13132860775392166  0.6632161739742404  0.6165901723486076  1.0000
  I   I5        1.0  0.30152856579333837  0.8961415444130247  0.3915323946448581  1.0000
  I   I6        1.0  0.6984714347265507  0.10385845589367663  0.608467605048056  1.0000
  I   I7        1.0  0.1291224253658119  0.0518859409901105  0.13772229691919743  1.0000
  I   I8        1.0  0.8708775752808209  0.9481140595893282  0.862277703483005  1.0000
  I   I9        1.0  0.9001418613057981  0.40205373413181206  0.11257397253260418  1.0000
  I   I10       1.0  0.09985813812829054  0.5979462661814104  0.8874260271678082  1.0000
  I   I11       1.0  0.46923822443264496  0.8404093633014149  0.0858049691687033  1.0000
  I   I12       1.0  0.5307617760978188  0.15959063619093353  0.9141950312253155  1.0000
