data_image0
_chemical_formula_structural       H64C84N8O8F20I4
_chemical_formula_sum              "H64 C84 N8 O8 F20 I4"
_cell_length_a       8.933331150608957
_cell_length_b       6.344265942242461
_cell_length_c       34.48783594651995
_cell_angle_alpha    90.0
_cell_angle_beta     89.46511137090648
_cell_angle_gamma    90.0

_space_group_name_H-M_alt    "P 1"
_space_group_IT_number       1

loop_
  _space_group_symop_operation_xyz
  'x, y, z'

loop_
  _atom_site_type_symbol
  _atom_site_label
  _atom_site_symmetry_multiplicity
  _atom_site_fract_x
  _atom_site_fract_y
  _atom_site_fract_z
  _atom_site_occupancy
  H   H1        1.0  0.44365428382340305  0.958122269044013  0.43613470202971955  1.0000
  H   H2        1.0  0.05634571628557944  0.45812226922074434  0.06386529791548842  1.0000
  H   H3        1.0  0.556345716394562  0.04187773060252434  0.5638652978606963  1.0000
  H   H4        1.0  0.9436542839333156  0.5418777320020196  0.9361347022648824  1.0000
  H   H5        1.0  0.18734564624117356  0.2475033619799651  0.3923657914231023  1.0000
  H   H6        1.0  0.31265435274835723  0.7475033633794602  0.10763420852505362  1.0000
  H   H7        1.0  0.8126543528573397  0.7524966376665723  0.6076342084702616  1.0000
  H   H8        1.0  0.6873456463510863  0.2524966378433036  0.8923657916582652  1.0000
  H   H9        1.0  0.07592744245923369  0.36855347983308745  0.45218779092825373  1.0000
  H   H10       1.0  0.4240725576497487  0.8685534812325827  0.047812209016954224  1.0000
  H   H11       1.0  0.9240725577587312  0.63144651981345  0.5478122089621622  1.0000
  H   H12       1.0  0.5759274425691463  0.13144651999018128  0.9521877911634165  1.0000
  H   H13       1.0  0.1934312305628454  0.5262079049637064  0.4216962188752758  1.0000
  H   H14       1.0  0.3065687695461371  0.026207905140437696  0.07830378106993219  1.0000
  H   H15       1.0  0.8065687685356678  0.473792094682831  0.5783037810180881  1.0000
  H   H16       1.0  0.6934312306718278  0.9737920960823262  0.9216962188204837  1.0000
  H   H17       1.0  0.1119047035336553  0.22173252395260934  0.3404041466992113  1.0000
  H   H18       1.0  0.38809529657532715  0.721732523775878  0.15959585324599662  1.0000
  H   H19       1.0  0.8880952955657881  0.7782674756939281  0.6595958534841074  1.0000
  H   H20       1.0  0.6119047036426378  0.27826747587065936  0.8404041466444192  1.0000
  H   H21       1.0  0.19265091367638335  0.5469480191389157  0.26990218234599467  1.0000
  H   H22       1.0  0.3073490864335294  0.04694801773942045  0.23009781788916822  1.0000
  H   H23       1.0  0.8073490865425118  0.4530519820838483  0.7300978178343761  1.0000
  H   H24       1.0  0.6926509126659142  0.9530519819071169  0.7699021822941505  1.0000
  H   H25       1.0  0.5025269661710438  0.49121599541561267  0.381681710197459  1.0000
  H   H26       1.0  0.997473033065298  0.9912159952388814  0.11831828963298326  1.0000
  H   H27       1.0  0.49747303404692117  0.5087840042309247  0.6183182896929569  1.0000
  H   H28       1.0  0.0025269660332151683  0.00878400440765606  0.8816817102603806  1.0000
  H   H29       1.0  0.36770793207380814  0.4275036930500016  0.31968024684320523  1.0000
  H   H30       1.0  0.1322920680351743  0.9275036928732703  0.18031975310200268  1.0000
  H   H31       1.0  0.6322920670247051  0.5724963065965358  0.6803197530501586  1.0000
  H   H32       1.0  0.8677079321827906  0.07249630677326711  0.8196802467884132  1.0000
  H   H33       1.0  0.9847670141734655  0.15775594987845645  0.2794400149818833  1.0000
  H   H34       1.0  0.5152329861832582  0.6577559497017251  0.2205599851355659  1.0000
  H   H35       1.0  0.015232986045429572  0.842244049768081  0.7205599851984874  1.0000
  H   H36       1.0  0.48476701403470673  0.3422440499448123  0.7794400147548499  1.0000
  H   H37       1.0  0.020232197726554338  0.8181178070485178  0.24384915628711504  1.0000
  H   H38       1.0  0.47976780238242805  0.31811780722524907  0.25615084365809293  1.0000
  H   H39       1.0  0.9797678024914104  0.1818821925980197  0.7561508436033009  1.0000
  H   H40       1.0  0.5202321978355368  0.6818821924212884  0.743849156232323  1.0000
  H   H41       1.0  0.4218419994808377  0.17684466890482095  0.5046908752317526  1.0000
  H   H42       1.0  0.0781580005992986  0.6768446687280898  0.9953091247215851  1.0000
  H   H43       1.0  0.5781579996176756  0.8231553307417164  0.49530912466161126  1.0000
  H   H44       1.0  0.9218419996186663  0.3231553309184478  0.004690875168830966  1.0000
  H   H45       1.0  0.22334129345327397  0.14893235066152113  0.5069028191272134  1.0000
  H   H46       1.0  0.27665870662686226  0.6489323504847898  0.9930971808261241  1.0000
  H   H47       1.0  0.776658706764691  0.8510676489850163  0.4930971807632026  1.0000
  H   H48       1.0  0.7233412935911026  0.3510676491617476  0.006902819064291686  1.0000
  H   H49       1.0  0.26939150730214334  0.7488674439647929  0.47473411312886665  1.0000
  H   H50       1.0  0.2306084928068391  0.2488674441415242  0.02526588681634136  1.0000
  H   H51       1.0  0.7306084929158215  0.25113255568174453  0.5252658867615494  1.0000
  H   H52       1.0  0.7693915074111258  0.7511325555050132  0.9747341130740745  1.0000
  H   H53       1.0  0.06844757219540094  0.7285522047908115  0.4755228406050069  1.0000
  H   H54       1.0  0.4315524279135815  0.2285522049675428  0.02447715934020108  1.0000
  H   H55       1.0  0.9315524280225639  0.2714477964319524  0.524477159285409  1.0000
  H   H56       1.0  0.5684475723043834  0.7714477962552211  0.9755228405502149  1.0000
  H   H57       1.0  0.299241050765379  0.39729994028419785  0.5567450178931457  1.0000
  H   H58       1.0  0.20075894931475727  0.8972999401074665  0.9432549820601919  1.0000
  H   H59       1.0  0.7007589494535161  0.6027000609385661  0.4432549822872252  1.0000
  H   H60       1.0  0.7992410509032076  0.10270005953907084  0.056745017830224044  1.0000
  H   H61       1.0  0.4058885936486669  0.5494644899403205  0.523046600364247  1.0000
  H   H62       1.0  0.09411140643239951  0.049464490117051715  0.9769533998790454  1.0000
  H   H63       1.0  0.5941114065702281  0.450535509706217  0.47695339981612384  1.0000
  H   H64       1.0  0.9058885926670441  0.9505355095294856  0.02304660030427331  1.0000
  C   C1        1.0  0.22424162966291702  0.04765353671367988  0.6308734244369488  1.0000
  C   C2        1.0  0.2757583704172193  0.5476535365369486  0.8691265755163887  1.0000
  C   C3        1.0  0.7757583705550479  0.952346464509084  0.36912657545346717  1.0000
  C   C4        1.0  0.7242416298007457  0.45234646468581535  0.13087342437402716  1.0000
  C   C5        1.0  0.3206883229423206  0.9870153674211609  0.6603609841494033  1.0000
  C   C6        1.0  0.1793116771378157  0.48701536759789227  0.8396390158039342  1.0000
  C   C7        1.0  0.6793116761561927  0.012984632225376491  0.33963901574396055  1.0000
  C   C8        1.0  0.8206883230801492  0.5129846320486452  0.16036098408648164  1.0000
  C   C9        1.0  0.15163200496190954  0.24127946462769817  0.6344626175750242  1.0000
  C   C10       1.0  0.3483679951182267  0.7412794644509669  0.8655373823783133  1.0000
  C   C11       1.0  0.8483679941366037  0.7587205350188393  0.36553738231833965  1.0000
  C   C12       1.0  0.6516320050997381  0.25872053519557053  0.13446261751210253  1.0000
  C   C13       1.0  0.17452208392816498  0.37163987157300854  0.6663447773732558  1.0000
  C   C14       1.0  0.32547791615197136  0.8716398713962772  0.8336552225800816  1.0000
  C   C15       1.0  0.8254779162907302  0.6283601280735289  0.333655222807115  1.0000
  C   C16       1.0  0.6745220840659937  0.1283601282502602  0.1663447773103342  1.0000
  C   C17       1.0  0.27252832541284777  0.30877566574827137  0.6952925423110113  1.0000
  C   C18       1.0  0.2274716746672885  0.8087756671477665  0.8047074576423262  1.0000
  C   C19       1.0  0.7274716736856655  0.691224333898266  0.30470745758235246  1.0000
  C   C20       1.0  0.7725283255516066  0.1912243340749973  0.19529254253804468  1.0000
  C   C21       1.0  0.34597048829493876  0.1157454095848393  0.692342784394184  1.0000
  C   C22       1.0  0.15402951178519753  0.615745409408108  0.8076572155591535  1.0000
  C   C23       1.0  0.6540295119239563  0.8842545900616982  0.30765721578618677  1.0000
  C   C24       1.0  0.8459704884327675  0.38425459023842945  0.19234278433126245  1.0000
  C   C25       1.0  0.27027917185054207  0.13377849978653433  0.4022408953988085  1.0000
  C   C26       1.0  0.2297208282584404  0.633778499609803  0.09775910454639948  1.0000
  C   C27       1.0  0.7297208272479712  0.8662214998600031  0.5977591044945554  1.0000
  C   C28       1.0  0.7702791719604547  0.36622150003673437  0.9022408956339714  1.0000
  C   C29       1.0  0.3025894850118073  0.9517354245502783  0.37821444038717966  1.0000
  C   C30       1.0  0.19741051509717514  0.4517354247270096  0.12178555955802829  1.0000
  C   C31       1.0  0.6974105152061575  0.04826457509625907  0.6217855595032361  1.0000
  C   C32       1.0  0.8025894851207898  0.5482645749195277  0.8782144403323876  1.0000
  C   C33       1.0  0.22819956558421212  0.9205564588825683  0.3418227677234174  1.0000
  C   C34       1.0  0.27180043452477026  0.4205564590592996  0.15817723222179056  1.0000
  C   C35       1.0  0.7718004346337527  0.07944354076396913  0.6581772321669985  1.0000
  C   C36       1.0  0.7281995656931947  0.5794435405872378  0.8418227676686254  1.0000
  C   C37       1.0  0.4024440640142277  0.7952092591844873  0.39110411786087856  1.0000
  C   C38       1.0  0.09755593609475476  0.2952092593612185  0.1088958820843294  1.0000
  C   C39       1.0  0.5975559362037373  0.2047907404620502  0.6088958820295374  1.0000
  C   C40       1.0  0.9024440641241405  0.7047907402853189  0.8911041180960415  1.0000
  C   C41       1.0  0.18112475436449096  0.46008756199275463  0.45100863259623564  1.0000
  C   C42       1.0  0.31887524574449144  0.9600875618160234  0.048991367348972324  1.0000
  C   C43       1.0  0.8188752458534738  0.5399124376537828  0.5489913672941803  1.0000
  C   C44       1.0  0.6811247544734734  0.039912437830514076  0.9510086325414435  1.0000
  C   C45       1.0  0.13085612431221305  0.07269126549839944  0.325627748345555  1.0000
  C   C46       1.0  0.3691438757967694  0.5726912653216681  0.1743722515996529  1.0000
  C   C47       1.0  0.8691438759057518  0.927308734148138  0.6743722515448608  1.0000
  C   C48       1.0  0.6308561244211954  0.42730873432486927  0.825627748290763  1.0000
  C   C49       1.0  0.2513949299606733  0.7279686557981142  0.32071389962357155  1.0000
  C   C50       1.0  0.2486050701483091  0.22796865597484542  0.17928610032163642  1.0000
  C   C51       1.0  0.7486050702572916  0.2720313438484233  0.6792861002668443  1.0000
  C   C52       1.0  0.751394930070586  0.772031343671692  0.8207138998587344  1.0000
  C   C53       1.0  0.17456336855171992  0.6946164599843918  0.2854106098736618  1.0000
  C   C54       1.0  0.3254366315572625  0.19461646016112313  0.21458939007154615  1.0000
  C   C55       1.0  0.8254366316662449  0.3053835396621456  0.714589390016754  1.0000
  C   C56       1.0  0.6745633686607023  0.8053835410616408  0.7854106098188697  1.0000
  C   C57       1.0  0.4258519623299954  0.6075192914497626  0.36983361729054004  1.0000
  C   C58       1.0  0.07414803777898708  0.10751929162649387  0.1301663826546679  1.0000
  C   C59       1.0  0.5741480378879695  0.3924807097730013  0.6301663825998759  1.0000
  C   C60       1.0  0.9258519624389778  0.8924807095962701  0.869833617235748  1.0000
  C   C61       1.0  0.3510329756109178  0.5738855610950452  0.33572116692669984  1.0000
  C   C62       1.0  0.14896702337954323  0.07388556127177648  0.16427883331141097  1.0000
  C   C63       1.0  0.6489670234885256  0.4261144385514922  0.664278833256619  1.0000
  C   C64       1.0  0.8510329757199002  0.9261144383747609  0.8357211668719078  1.0000
  C   C65       1.0  0.05851581816678024  0.03694429460142616  0.2910609764152142  1.0000
  C   C66       1.0  0.44148418194220224  0.5369442944246948  0.20893902352999372  1.0000
  C   C67       1.0  0.9414841809317329  0.9630557050451113  0.7089390234781496  1.0000
  C   C68       1.0  0.5585158182757627  0.46305570522184253  0.7910609763604222  1.0000
  C   C69       1.0  0.07927010067835197  0.8456989758697842  0.2708396203113731  1.0000
  C   C70       1.0  0.4207298994306305  0.3456989760465154  0.22916037963383484  1.0000
  C   C71       1.0  0.9207298995396128  0.15430102377675328  0.7291603795790428  1.0000
  C   C72       1.0  0.5792701007882646  0.6543010236000221  0.770839620546536  1.0000
  C   C73       1.0  0.3156415056559037  0.25952589708400897  0.49998883672739264  1.0000
  C   C74       1.0  0.18435849445307873  0.7595258984835042  1.1163217815335873e-05  1.0000
  C   C75       1.0  0.6843584945620611  0.7404741025625284  0.5000111631630233  1.0000
  C   C76       1.0  0.8156415057658164  0.24047410273925973  0.9999888369625555  1.0000
  C   C77       1.0  0.17361346539546998  0.6422257432291425  0.4796424109842282  1.0000
  C   C78       1.0  0.3263865347135124  0.14222574182964726  0.020357588960979667  1.0000
  C   C79       1.0  0.8263865348234251  0.35777425799362145  0.5203575891961426  1.0000
  C   C80       1.0  0.6736134643850008  0.8577742578168902  0.9796424109323842  1.0000
  C   C81       1.0  0.30608927975858546  0.4488746272501648  0.5265448959388208  1.0000
  C   C82       1.0  0.19391072032155082  0.9488746270734335  0.9734551040145168  1.0000
  C   C83       1.0  0.6939107204603097  0.5511253723963726  0.4734551042415501  1.0000
  C   C84       1.0  0.806089279896414  0.05112537257310393  0.026544895875899158  1.0000
  N   N1        1.0  0.33646299621528114  0.1572825633547291  0.43555048647404804  1.0000
  N   N2        1.0  0.16353700277424965  0.6572825631779978  0.06444951347410788  1.0000
  N   N3        1.0  0.6635370028841623  0.8427174362918083  0.5644495137092708  1.0000
  N   N4        1.0  0.8364629963242636  0.34271743646853964  0.935550486419256  1.0000
  N   N5        1.0  0.30938409819044804  0.3251028580417563  0.45936369016857825  1.0000
  N   N6        1.0  0.19061590191946465  0.825102857865025  0.04063631006658464  1.0000
  N   N7        1.0  0.690615902028447  0.6748971416047812  0.5406363100117926  1.0000
  N   N8        1.0  0.8093840982994305  0.17489714178151242  0.9593636901137862  1.0000
  O   O1        1.0  0.477539398073534  0.8165639787428091  0.42473065535077464  1.0000
  O   O2        1.0  0.022460600916927025  0.31656397891954036  0.07526934488733619  1.0000
  O   O3        1.0  0.5224606010259094  0.18343602090372838  0.5752693448325441  1.0000
  O   O4        1.0  0.9775393981825166  0.6834360207269972  0.9247306552959825  1.0000
  O   O5        1.0  0.17306229919814264  0.5695376475222024  0.5191080222389969  1.0000
  O   O6        1.0  0.32693770088199364  0.06953764769893372  0.9808919777143404  1.0000
  O   O7        1.0  0.8269376999003706  0.430462352124335  0.4808919776543669  1.0000
  O   O8        1.0  0.6730622993369014  0.9304623519476037  0.019108022466030283  1.0000
  F   F1        1.0  0.05591641202076082  0.30678863208436663  0.606745731241304  1.0000
  F   F2        1.0  0.4440835880593754  0.8067886319076353  0.8932542687120334  1.0000
  F   F3        1.0  0.9440835881972041  0.6932113691383972  0.3932542686491119  1.0000
  F   F4        1.0  0.5559164121585894  0.19321136931512856  0.10674573117838243  1.0000
  F   F5        1.0  0.3940262988320117  0.800557272699193  0.6584493735554467  1.0000
  F   F6        1.0  0.10597370124812457  0.30055727287592426  0.8415506263978908  1.0000
  F   F7        1.0  0.6059737002665015  0.19944272694734444  0.34155062633791716  1.0000
  F   F8        1.0  0.8940262989698403  0.6994427267706131  0.1584493734925251  1.0000
  F   F9        1.0  0.10288228092283068  0.5578186920627595  0.6696115692314993  1.0000
  F   F10       1.0  0.3971177191573056  0.05781869223949081  0.8303884307218383  1.0000
  F   F11       1.0  0.8971177192960644  0.44218130758377794  0.3303884309488716  1.0000
  F   F12       1.0  0.6028822810606593  0.9421813074070465  0.16961156916857764  1.0000
  F   F13       1.0  0.442752779314013  0.05680159111877089  0.7200518094936877  1.0000
  F   F14       1.0  0.057247220766123236  0.5568015909420396  0.7799481904596497  1.0000
  F   F15       1.0  0.5572472209039518  0.9431984085277665  0.2799481903967281  1.0000
  F   F16       1.0  0.9427527794518418  0.4431984087044978  0.22005180943076616  1.0000
  F   F17       1.0  0.29709825546338314  0.4355608363768042  0.7259084049665051  1.0000
  F   F18       1.0  0.2029017446167531  0.9355608362000729  0.7740915949868324  1.0000
  F   F19       1.0  0.7029017447545817  0.5644391632697332  0.27409159492391083  1.0000
  F   F20       1.0  0.7970982544826903  0.0644391634464645  0.22590840519648636  1.0000
  I   I1        1.0  0.19116611130609557  0.8545340121860876  0.5826292977596682  1.0000
  I   I2        1.0  0.3088338887749709  0.35453401236281895  0.9173707024836243  1.0000
  I   I3        1.0  0.8088338889127995  0.14546598746044972  0.41737070242070257  1.0000
  I   I4        1.0  0.6911661114439243  0.6454659872837184  0.08262929769674666  1.0000
