data_image0
_chemical_formula_structural       H52C52N16O24
_chemical_formula_sum              "H52 C52 N16 O24"
_cell_length_a       15.653308579109291
_cell_length_b       3.651656806349882
_cell_length_c       24.17379926790481
_cell_angle_alpha    90.0
_cell_angle_beta     91.80108598035892
_cell_angle_gamma    90.0

_space_group_name_H-M_alt    "P 1"
_space_group_IT_number       1

loop_
  _space_group_symop_operation_xyz
  'x, y, z'

loop_
  _atom_site_type_symbol
  _atom_site_label
  _atom_site_symmetry_multiplicity
  _atom_site_fract_x
  _atom_site_fract_y
  _atom_site_fract_z
  _atom_site_occupancy
  H   H1        1.0  0.7843641859814373  0.5118508198113819  0.5570430803940161  1.0000
  H   H2        1.0  0.28436418590941615  0.4881491784497136  0.05704308042574672  1.0000
  H   H3        1.0  0.21563581352344668  0.4881491784497136  0.44295691952936517  1.0000
  H   H4        1.0  0.7156358135954678  0.5118508198113819  0.9429569194976345  1.0000
  H   H5        1.0  0.5564871335277624  0.6487322455605977  0.453441031500338  1.0000
  H   H6        1.0  0.05648713347419004  0.35126775543898076  0.9534410311817906  1.0000
  H   H7        1.0  0.4435128666162799  0.35126775543898076  0.5465589684362008  1.0000
  H   H8        1.0  0.9435128666698522  0.6487322455605977  0.04655896875474822  1.0000
  H   H9        1.0  0.7832465617091858  0.15936401498302283  0.38689447935968607  1.0000
  H   H10       1.0  0.2832465616556135  0.8406359860165556  0.8868944790411386  1.0000
  H   H11       1.0  0.21675343843462547  0.8406359860165556  0.613105520990519  1.0000
  H   H12       1.0  0.7167534384884289  0.15936401498302283  0.1131055208954001  1.0000
  H   H13       1.0  0.9215487778614679  0.38233743586533164  0.40642772103123126  1.0000
  H   H14       1.0  0.42154877780766464  0.6176625623957638  0.9064277211263502  1.0000
  H   H15       1.0  0.07845122228257434  0.6176625623957638  0.5935722789053075  1.0000
  H   H16       1.0  0.5784512223363777  0.38233743586533164  0.09357227881018863  1.0000
  H   H17       1.0  0.00031415949322938436  0.14684718154990298  0.44968882741084965  1.0000
  H   H18       1.0  0.5003141595650195  0.8531528167111926  0.9496888277927853  1.0000
  H   H19       1.0  0.9996858406508129  0.8531528167111926  0.5503111725256891  1.0000
  H   H20       1.0  0.49968584057879173  0.14684718154990298  0.05031117255741974  1.0000
  H   H21       1.0  0.0034213551402406187  0.9605388364812081  0.7671368149634819  1.0000
  H   H22       1.0  0.503421355194044  0.03946116451837047  0.2671368148683629  1.0000
  H   H23       1.0  0.9965786450038017  0.03946116451837047  0.23286318497305702  1.0000
  H   H24       1.0  0.49657864494999837  0.9605388364812081  0.7328631850681759  1.0000
  H   H25       1.0  0.8637706696137621  0.949169035812152  0.8119497737545697  1.0000
  H   H26       1.0  0.36377066954174087  0.050830965187426524  0.31194977378630034  1.0000
  H   H27       1.0  0.13622933053004918  0.050830965187426524  0.18805022659563528  1.0000
  H   H28       1.0  0.6362293306020703  0.949169035812152  0.6880502265639047  1.0000
  H   H29       1.0  0.7480428212886463  0.3014985713020784  0.656063331459478  1.0000
  H   H30       1.0  0.2480428212166251  0.6985014269590171  0.15606333149120868  1.0000
  H   H31       1.0  0.25195717821623775  0.6985014269590171  0.34393666846390314  1.0000
  H   H32       1.0  0.7519571782882589  0.3014985713020784  0.8439366684321725  1.0000
  H   H33       1.0  0.8932950454242053  0.28789328399424374  0.6171563936214166  1.0000
  H   H34       1.0  0.3932950453521842  0.7121067170053347  0.11715639365314728  1.0000
  H   H35       1.0  0.10670495471983699  0.7121067170053347  0.3828436063151221  1.0000
  H   H36       1.0  0.6067049547918582  0.28789328399424374  0.8828436062833914  1.0000
  H   H37       1.0  0.05145034822992681  0.21389467067162338  0.6625152081617308  1.0000
  H   H38       1.0  0.5514503476445718  0.7861053303279552  0.16251520805345454  1.0000
  H   H39       1.0  0.9485496519141156  0.7861053303279552  0.33748479177480784  1.0000
  H   H40       1.0  0.44854965186031215  0.21389467067162338  0.8374847918699266  1.0000
  H   H41       1.0  0.21081434252754666  0.549380806134765  0.6953163228126563  1.0000
  H   H42       1.0  0.71081434258135  0.4506191921263305  0.1953163227175375  1.0000
  H   H43       1.0  0.7891856576164957  0.4506191921263305  0.3046836771238824  1.0000
  H   H44       1.0  0.28918565756269227  0.549380806134765  0.8046836772190012  1.0000
  H   H45       1.0  0.15485239524643113  0.21501811688181108  0.733872107348106  1.0000
  H   H46       1.0  0.6548523953002345  0.7849818841177674  0.2338721072529873  1.0000
  H   H47       1.0  0.8451476048973802  0.7849818841177674  0.26612789300209894  1.0000
  H   H48       1.0  0.34514760484380785  0.21501811688181108  0.7661278926835515  1.0000
  H   H49       1.0  0.108856965136738  0.6562041142073322  0.7217267805755154  1.0000
  H   H50       1.0  0.6088569651905414  0.3437958840537633  0.22172678048039665  1.0000
  H   H51       1.0  0.8911430350073044  0.3437958840537633  0.2782732193610233  1.0000
  H   H52       1.0  0.39114303495350095  0.6562041142073322  0.7782732194561421  1.0000
  C   C1        1.0  0.7939685523219051  0.33243349371964154  0.4723777471906998  1.0000
  C   C2        1.0  0.29396855226810187  0.6675665072799368  0.9723777472858186  1.0000
  C   C3        1.0  0.20603144782213714  0.6675665072799368  0.527622252745839  1.0000
  C   C4        1.0  0.7060314478759404  0.33243349371964154  0.027622252650720148  1.0000
  C   C5        1.0  0.7514697182923634  0.48090334418785474  0.5171183418822262  1.0000
  C   C6        1.0  0.25146971822034225  0.5190966568117237  0.017118341913956784  1.0000
  C   C7        1.0  0.2485302818516789  0.5190966568117237  0.4828816580543126  1.0000
  C   C8        1.0  0.7485302819237001  0.48090334418785474  0.982881658022582  1.0000
  C   C9        1.0  0.6672030083568655  0.5954336990866902  0.509346150132288  1.0000
  C   C10       1.0  0.16720300828484444  0.4045663019128883  0.009346150164018551  1.0000
  C   C11       1.0  0.3327969917871767  0.4045663019128883  0.49065384980425086  1.0000
  C   C12       1.0  0.8327969912200396  0.5954336990866902  0.9906538497593628  1.0000
  C   C13       1.0  0.622439413621696  0.5595118321215635  0.45888733748664456  1.0000
  C   C14       1.0  0.12243941356812371  0.44048816613953207  0.958887337168097  1.0000
  C   C15       1.0  0.3775605865221152  0.44048816613953207  0.5411126628635605  1.0000
  C   C16       1.0  0.8775605865759186  0.5595118321215635  0.04111266276844168  1.0000
  C   C17       1.0  0.6657871807783913  0.3986789441626704  0.4158157556213631  1.0000
  C   C18       1.0  0.16578718072458787  0.6013210568369082  0.9158157557164819  1.0000
  C   C19       1.0  0.33421281936565106  0.6013210568369082  0.5841842443151757  1.0000
  C   C20       1.0  0.8342128194194545  0.3986789441626704  0.08418424422005683  1.0000
  C   C21       1.0  0.7510965918685513  0.28721747021138533  0.42127371744901615  1.0000
  C   C22       1.0  0.25109659181474786  0.7127825280497101  0.9212737175441351  1.0000
  C   C23       1.0  0.2489034082754911  0.7127825280497101  0.5787262824875226  1.0000
  C   C24       1.0  0.7489034083292944  0.28721747021138533  0.07872628239240372  1.0000
  C   C25       1.0  0.8840715046926572  0.2030656765746871  0.48296889218860056  1.0000
  C   C26       1.0  0.38407150463885387  0.7969343216864085  0.9829688922837194  1.0000
  C   C27       1.0  0.1159284954513851  0.7969343216864085  0.5170311077479381  1.0000
  C   C28       1.0  0.6159284955051885  0.2030656765746871  0.017031107652819313  1.0000
  C   C29       1.0  0.9452792380523014  0.03283691933795351  0.7435152784101295  1.0000
  C   C30       1.0  0.44527923798028024  0.9671630816616249  0.2435152784418601  1.0000
  C   C31       1.0  0.054720761452582575  0.9671630816616249  0.25648472151325175  1.0000
  C   C32       1.0  0.5547207615246038  0.03283691933795351  0.7564847214815212  1.0000
  C   C33       1.0  0.8665745296111076  0.028691201160474404  0.7687008446437196  1.0000
  C   C34       1.0  0.3665745295390865  0.9713087998391041  0.2687008446754502  1.0000
  C   C35       1.0  0.13342547053293466  0.9713087998391041  0.23129915529281916  1.0000
  C   C36       1.0  0.6334254706049558  0.028691201160474404  0.7312991552610886  1.0000
  C   C37       1.0  0.7925682496171649  0.12244096411867464  0.7376450537065812  1.0000
  C   C38       1.0  0.2925682495453748  0.8775590341424209  0.2376450533246455  1.0000
  C   C39       1.0  0.2074317505266463  0.8775590341424209  0.2623549466436239  1.0000
  C   C40       1.0  0.7074317505986675  0.12244096411867464  0.7623549466118932  1.0000
  C   C41       1.0  0.8026117275184876  0.218685383744544  0.6820768506323698  1.0000
  C   C42       1.0  0.3026117274464664  0.7813146172550345  0.18207685066410045  1.0000
  C   C43       1.0  0.19738827262555472  0.7813146172550345  0.31792314930416893  1.0000
  C   C44       1.0  0.6973882726975759  0.218685383744544  0.8179231492724383  1.0000
  C   C45       1.0  0.8837962909260519  0.2167003067276143  0.6603708213105078  1.0000
  C   C46       1.0  0.3837962914931892  0.7832996915334812  0.16037082135539601  1.0000
  C   C47       1.0  0.11620370857883192  0.7832996915334812  0.33962917861287334  1.0000
  C   C48       1.0  0.616203708650853  0.2167003067276143  0.8396291785811426  1.0000
  C   C49       1.0  0.14741755992625352  0.4382992446652849  0.7034808796259626  1.0000
  C   C50       1.0  0.6474175599800569  0.5617007563342936  0.20348087953084357  1.0000
  C   C51       1.0  0.8525824395783994  0.5617007563342936  0.29651912071108505  1.0000
  C   C52       1.0  0.35258243952482715  0.4382992446652849  0.7965191203925377  1.0000
  N   N1        1.0  0.6242620347378243  0.7630397153299805  0.5562769528653705  1.0000
  N   N2        1.0  0.1242620346658031  0.23696028566959798  0.056276952897101135  1.0000
  N   N3        1.0  0.375737965405987  0.23696028566959798  0.4437230474848346  1.0000
  N   N4        1.0  0.8757379654780083  0.7630397153299805  0.9437230474531039  1.0000
  N   N5        1.0  0.6189124457898286  0.33986018013574765  0.36259745408380634  1.0000
  N   N6        1.0  0.11891244573602526  0.6601398208638309  0.8625974541789253  1.0000
  N   N7        1.0  0.3810875543542137  0.6601398208638309  0.6374025458527324  1.0000
  N   N8        1.0  0.881087554408017  0.33986018013574765  0.1374025457576135  1.0000
  N   N9        1.0  0.9389505908295253  0.24729548747015404  0.4427265361191587  1.0000
  N   N10       1.0  0.4389505907757218  0.7527045107909416  0.9427265362142776  1.0000
  N   N11       1.0  0.061049409314517133  0.7527045107909416  0.5572734638173801  1.0000
  N   N12       1.0  0.5610494093680896  0.24729548747015404  0.057273464135927536  1.0000
  N   N13       1.0  0.9544836701147644  0.12413534295220602  0.6901573801685754  1.0000
  N   N14       1.0  0.45448367004274315  0.8758646553088896  0.19015738020030595  1.0000
  N   N15       1.0  0.04551633002927799  0.8758646553088896  0.3098426197679634  1.0000
  N   N16       1.0  0.5455163301012991  0.12413534295220602  0.8098426197362327  1.0000
  O   O1        1.0  0.6643643544990314  0.7735001178337366  0.6013086190249503  1.0000
  O   O2        1.0  0.1643643544270102  0.226499883165842  0.10130861905668082  1.0000
  O   O3        1.0  0.33563564564501097  0.226499883165842  0.3986913809115886  1.0000
  O   O4        1.0  0.8356356457170322  0.7735001178337366  0.898691380879858  1.0000
  O   O5        1.0  0.5514398931375155  0.88820704737641  0.5479190145855931  1.0000
  O   O6        1.0  0.05143989306549436  0.1117929536231685  0.047919014617323764  1.0000
  O   O7        1.0  0.4485601070065268  0.1117929536231685  0.4520809853509456  1.0000
  O   O8        1.0  0.948560107078548  0.88820704737641  0.9520809853192149  1.0000
  O   O9        1.0  0.5479304984567478  0.48455628330765493  0.35599853251616875  1.0000
  O   O10       1.0  0.04793049840294443  0.5154437149534405  0.8559985326112877  1.0000
  O   O11       1.0  0.4520695016872946  0.5154437149534405  0.64400146742037  1.0000
  O   O12       1.0  0.9520695011019396  0.48455628330765493  0.14400146731209365  1.0000
  O   O13       1.0  0.6540981472169303  0.14518381877456277  0.32786070430429576  1.0000
  O   O14       1.0  0.15409814716312695  0.8548161794865328  0.8278607043994145  1.0000
  O   O15       1.0  0.345901852927112  0.8548161794865328  0.6721392956322431  1.0000
  O   O16       1.0  0.8459018529809154  0.14518381877456277  0.17213929553712418  1.0000
  O   O17       1.0  0.901182455720774  0.05835834014561045  0.5292591542217012  1.0000
  O   O18       1.0  0.401182455648753  0.9416416581154851  0.029259154253431875  1.0000
  O   O19       1.0  0.09881754442303711  0.9416416581154851  0.47074084612850375  1.0000
  O   O20       1.0  0.5988175438559  0.05835834014561045  0.9707408460836154  1.0000
  O   O21       1.0  0.10980726908507868  0.30812474985147675  0.6523600328434607  1.0000
  O   O22       1.0  0.6098072691388821  0.6918752511481017  0.1523600327483418  1.0000
  O   O23       1.0  0.8901927304198053  0.6918752511481017  0.3476399670799205  1.0000
  O   O24       1.0  0.3901927310051602  0.30812474985147675  0.847639967188197  1.0000
