data_image0
_chemical_formula_structural       H68C68N28O28
_chemical_formula_sum              "H68 C68 N28 O28"
_cell_length_a       9.766198491075686
_cell_length_b       17.731838485764577
_cell_length_c       10.787272620602625
_cell_angle_alpha    90.0
_cell_angle_beta     98.83819741725175
_cell_angle_gamma    90.0

_space_group_name_H-M_alt    "P 1"
_space_group_IT_number       1

loop_
  _space_group_symop_operation_xyz
  'x, y, z'

loop_
  _atom_site_type_symbol
  _atom_site_label
  _atom_site_symmetry_multiplicity
  _atom_site_fract_x
  _atom_site_fract_y
  _atom_site_fract_z
  _atom_site_occupancy
  H   H1        1.0  0.3355253418195286  0.7858052125382413  0.7339202390841802  1.0000
  H   H2        1.0  0.1644746580833778  0.28580521213683274  0.7660797610333244  1.0000
  H   H3        1.0  0.664474658398711  0.21419478770061848  0.2660797608074462  1.0000
  H   H4        1.0  0.8355253410986647  0.7141947875380696  0.23392023872300086  1.0000
  H   H5        1.0  0.523273122434832  0.8610436426125424  0.6542333301341915  1.0000
  H   H6        1.0  0.9767268773793668  0.3610436427750912  0.8457666700997725  1.0000
  H   H7        1.0  0.47672687779328365  0.13895635706236004  0.3457666706857849  1.0000
  H   H8        1.0  0.023273122838872673  0.6389563574637686  0.15423332979185395  1.0000
  H   H9        1.0  0.7092019114423266  0.7942398494835344  0.5648263275738982  1.0000
  H   H10       1.0  0.7907980883718724  0.2942398496460832  0.9351736726600659  1.0000
  H   H11       1.0  0.290798087739716  0.2057601507553254  0.43517367218242703  1.0000
  H   H12       1.0  0.2092019118463672  0.7057601505927765  0.06482632723156048  1.0000
  H   H13       1.0  0.34079244986608653  0.575900926922958  0.724375118474807  1.0000
  H   H14       1.0  0.15920755003681986  0.07590092652154946  0.7756248816426975  1.0000
  H   H15       1.0  0.659207550352153  0.4240990733159018  0.27562488141681946  1.0000
  H   H16       1.0  0.8407924501814196  0.924099073153353  0.22437511824892886  1.0000
  H   H17       1.0  0.08781539769474825  0.5973570511881005  0.8955253744157499  1.0000
  H   H18       1.0  0.41218460220815817  0.0973570507866919  0.6044746257017546  1.0000
  H   H19       1.0  0.9121846025234913  0.4026429490507593  0.1044746254758765  1.0000
  H   H20       1.0  0.5878153969738844  0.9026429488882106  0.39552537405457056  1.0000
  H   H21       1.0  0.16881268026727067  0.5331549183458718  0.8007869687657871  1.0000
  H   H22       1.0  0.33118731962575965  0.03315491850842056  0.6992130304233672  1.0000
  H   H23       1.0  0.8311873189147719  0.46684508189298796  0.19921303099053791  1.0000
  H   H24       1.0  0.6688126805924799  0.966845081730439  0.3007869694682592  1.0000
  H   H25       1.0  0.02155474482507406  0.5871745464159668  0.7355045020568187  1.0000
  H   H26       1.0  0.47844525507783237  0.0871745460145583  0.7644954980606858  1.0000
  H   H27       1.0  0.9784452553931655  0.4128254538228929  0.2644954978348077  1.0000
  H   H28       1.0  0.5215547441042101  0.9128254536603442  0.23550450169563944  1.0000
  H   H29       1.0  0.715075924703048  0.5835097290281832  0.5492326077961065  1.0000
  H   H30       1.0  0.7849240751111508  0.08350972862677473  0.9507673924378575  1.0000
  H   H31       1.0  0.2849240744789945  0.4164902712106765  0.45076739196021864  1.0000
  H   H32       1.0  0.21507592510708873  0.9164902710481276  0.04923260745376888  1.0000
  H   H33       1.0  0.8894828243896014  0.5970333052886209  0.3733919934487651  1.0000
  H   H34       1.0  0.6105171761439715  0.09703330545116966  0.12660800621698326  1.0000
  H   H35       1.0  0.11051717582863832  0.40296669495023885  0.6266080064428613  1.0000
  H   H36       1.0  0.3894828240742681  0.9029666947876902  0.8733919936746432  1.0000
  H   H37       1.0  0.9316044667887496  0.5510263528423234  0.5189424344579965  1.0000
  H   H38       1.0  0.56839553405177  0.0510263530048721  0.9810575649829185  1.0000
  H   H39       1.0  0.06839553342948985  0.4489736468325791  0.4810575654336299  1.0000
  H   H40       1.0  0.4316044661664694  0.9489736472339877  0.018942434908707704  1.0000
  H   H41       1.0  0.04448586454735849  0.6233048196820091  0.4749156808065888  1.0000
  H   H42       1.0  0.45551413503872473  0.12330481984455793  0.02508431860739875  1.0000
  H   H43       1.0  0.9555141356708811  0.3766951805568506  0.5250843190850377  1.0000
  H   H44       1.0  0.5444858641433178  0.8766951803943018  0.9749156811489265  1.0000
  H   H45       1.0  0.5352470459196097  0.54814362017808  0.6472499076191046  1.0000
  H   H46       1.0  0.9647529538945891  0.048143619776671476  0.8527500926148592  1.0000
  H   H47       1.0  0.46475295326243293  0.4518563800607797  0.3527500921372204  1.0000
  H   H48       1.0  0.03524704632365032  0.9518563798982309  0.14724990727676712  1.0000
  H   H49       1.0  0.5415554841722134  0.3417648652092769  0.8056642183249748  1.0000
  H   H50       1.0  0.9584445156321093  0.8417648650467282  0.6943357809806392  1.0000
  H   H51       1.0  0.4584445160460262  0.6582351350295829  0.19433578156665166  1.0000
  H   H52       1.0  0.04155548458613011  0.1582351346281743  0.3056642189109872  1.0000
  H   H53       1.0  0.4272563843383449  0.3263565024374558  0.6633356491038029  1.0000
  H   H54       1.0  0.07274361556456148  0.8263565028388643  0.8366643510137016  1.0000
  H   H55       1.0  0.5727436158798945  0.6736434972374467  0.33666435078782353  1.0000
  H   H56       1.0  0.927256384653678  0.1736434973999954  0.1633356488779248  1.0000
  H   H57       1.0  0.5782938441296486  0.23537743496539837  0.6810597926275556  1.0000
  H   H58       1.0  0.9217061556845503  0.7353774348028496  0.8189402076064085  1.0000
  H   H59       1.0  0.4217061560885908  0.7646225652734614  0.31894020726407085  1.0000
  H   H60       1.0  0.07829384349749237  0.26462256543601015  0.18105979214991666  1.0000
  H   H61       1.0  0.9692281570649144  0.0712729185422369  0.49733368918935283  1.0000
  H   H62       1.0  0.5307718434686582  0.5712729183796882  0.002666310476395501  1.0000
  H   H63       1.0  0.03077184315332501  0.9287270816966229  0.5026663107022735  1.0000
  H   H64       1.0  0.4692281567495814  0.42872708185917163  0.9973336894152309  1.0000
  H   H65       1.0  0.9267052573652486  0.22230474765290706  0.5134411806215685  1.0000
  H   H66       1.0  0.5732947424489502  0.7223047474903582  0.9865588196123954  1.0000
  H   H67       1.0  0.07329474285299083  0.7776952525859527  0.48655881927005784  1.0000
  H   H68       1.0  0.42670525673309234  0.27769525218454416  0.013441180143929697  1.0000
  C   C1        1.0  0.423637707825513  0.6800611938621569  0.687653867612338  1.0000
  C   C2        1.0  0.07636229207739338  0.18006119402470575  0.8123461325051666  1.0000
  C   C3        1.0  0.5763622913565295  0.3199388058127455  0.31234613214398715  1.0000
  C   C4        1.0  0.9236377081507223  0.8199388056501967  0.18765386831480996  1.0000
  C   C5        1.0  0.41930315002471236  0.7589816888307676  0.6954677204228932  1.0000
  C   C6        1.0  0.08069684987819405  0.2589816889933164  0.8045322796946112  1.0000
  C   C7        1.0  0.5806968501935271  0.24101831140809216  0.3045322794687331  1.0000
  C   C8        1.0  0.9193031493038485  0.7410183112455434  0.19546772006171395  1.0000
  C   C9        1.0  0.5227227945731658  0.799650247287294  0.6503939946943091  1.0000
  C   C10       1.0  0.9772772052410332  0.2996502474498427  0.8496060055396547  1.0000
  C   C11       1.0  0.4772772056450738  0.2003497523876085  0.34960600519731716  1.0000
  C   C12       1.0  0.022722794977206414  0.700349752789017  0.1503939943519716  1.0000
  C   C13       1.0  0.6278832419028493  0.7631943557834905  0.6002942179421122  1.0000
  C   C14       1.0  0.8721167579014734  0.26319435594603924  0.8997057813635017  1.0000
  C   C15       1.0  0.3721167583153902  0.23680564389141195  0.3997057819495141  1.0000
  C   C16       1.0  0.12788324231676612  0.7368056442928205  0.1002942185281247  1.0000
  C   C17       1.0  0.6277141096126132  0.6841511769768929  0.6004610183886016  1.0000
  C   C18       1.0  0.8722858901917095  0.18415117713944157  0.8995389809170125  1.0000
  C   C19       1.0  0.37228589060562634  0.31584882326196695  0.39953898150302475  1.0000
  C   C20       1.0  0.12771411002653  0.8158488230994182  0.10046101897461404  1.0000
  C   C21       1.0  0.20505262534975024  0.65330521306632  0.7727688359525807  1.0000
  C   C22       1.0  0.2949473745531561  0.15330521322886875  0.7272311641649238  1.0000
  C   C23       1.0  0.7949473748684893  0.34669478660858244  0.22723116393904583  1.0000
  C   C24       1.0  0.7050526246288864  0.846694787009991  0.2727688355914013  1.0000
  C   C25       1.0  0.11765113852950977  0.5878724892722552  0.8030592380982164  1.0000
  C   C26       1.0  0.38234886137339663  0.08787248943480407  0.696940762019288  1.0000
  C   C27       1.0  0.8823488606525328  0.4121275104026471  0.19694076165810867  1.0000
  C   C28       1.0  0.6176511388448429  0.9121275102400984  0.3030592378723384  1.0000
  C   C29       1.0  0.8569700976420742  0.6653442371174008  0.529415936849097  1.0000
  C   C30       1.0  0.6430299021721246  0.16534423727994957  0.970584063384867  1.0000
  C   C31       1.0  0.14302990258604142  0.334655763121459  0.4705840639708794  1.0000
  C   C32       1.0  0.3569700980461149  0.8346557629589102  0.0294159365067594  1.0000
  C   C33       1.0  0.9368268816492218  0.6054941087253567  0.47172324906876273  1.0000
  C   C34       1.0  0.5631731188942268  0.1054941088879054  0.028276751525335642  1.0000
  C   C35       1.0  0.06317311857889375  0.3945058915135031  0.5282767517512138  1.0000
  C   C36       1.0  0.43682688132401265  0.8945058913509544  0.9717232483662908  1.0000
  C   C37       1.0  0.6444532442295473  0.4465880594591119  0.6080895890908729  1.0000
  C   C38       1.0  0.8555467555747753  0.9465880592965631  0.891910410214741  1.0000
  C   C39       1.0  0.35554675495249516  0.5534119407797478  0.39191041066545224  1.0000
  C   C40       1.0  0.14445324464346412  0.05341194037833931  0.10808958967688535  1.0000
  C   C41       1.0  0.5080733086872432  0.36401505829087655  0.710693218102092  1.0000
  C   C42       1.0  0.9919266921631527  0.864015058692285  0.7893067822671734  1.0000
  C   C43       1.0  0.4919266915309963  0.635984941384026  0.28930678178953445  1.0000
  C   C44       1.0  0.00807330805508692  0.1359849415465747  0.21069321762445306  1.0000
  C   C45       1.0  0.4574618172115041  0.44421717501677105  0.7142543690641215  1.0000
  C   C46       1.0  0.042538182681526204  0.9442171748542222  0.785745630125033  1.0000
  C   C47       1.0  0.5425381819705385  0.5557828252220888  0.28574563069220366  1.0000
  C   C48       1.0  0.9574618175367133  0.055782825384637476  0.2142543697665935  1.0000
  C   C49       1.0  0.6661527209236985  0.24844266337845827  0.6322976106946588  1.0000
  C   C50       1.0  0.8338472788905005  0.7484426632159095  0.8677023895393049  1.0000
  C   C51       1.0  0.33384727929454105  0.7515573368604015  0.36770238919696746  1.0000
  C   C52       1.0  0.16615272133761522  0.25155733702295024  0.13229761128067136  1.0000
  C   C53       1.0  0.743376993320358  0.1859806980899084  0.5966560062689038  1.0000
  C   C54       1.0  0.7566230075300379  0.6859806979273596  0.9033439941003616  1.0000
  C   C55       1.0  0.25662300690775763  0.8140193015849941  0.4033439945510728  1.0000
  C   C56       1.0  0.24337699268820168  0.31401930174754283  0.0966560057912649  1.0000
  C   C57       1.0  0.777517351879044  0.06486033588244751  0.582151779676842  1.0000
  C   C58       1.0  0.7224826479252786  0.5648603357198988  0.9178482196287719  1.0000
  C   C59       1.0  0.22248264833919545  0.9351396643564122  0.41784822021478446  1.0000
  C   C60       1.0  0.27751735229296093  0.4351396639550037  0.0821517802628544  1.0000
  C   C61       1.0  0.8850216959198314  0.09925876842454834  0.533526175291982  1.0000
  C   C62       1.0  0.6149783038943674  0.5992587682619995  0.9664738249419821  1.0000
  C   C63       1.0  0.11497830430828418  0.9007412318143114  0.4664738255279944  1.0000
  C   C64       1.0  0.3850216963238722  0.4007412319768602  0.033526174949644424  1.0000
  C   C65       1.0  0.8626528520391052  0.17734129895918738  0.542279456296962  1.0000
  C   C66       1.0  0.6373471477652174  0.6773412987966386  0.9577205430086518  1.0000
  C   C67       1.0  0.1373471481791341  0.8226587012796724  0.45772054359466435  1.0000
  C   C68       1.0  0.3626528524530222  0.3226587008782638  0.04227945688297448  1.0000
  N   N1        1.0  0.5267875630996157  0.6436040328904403  0.641976502819042  1.0000
  N   N2        1.0  0.9732124367145831  0.14360403248903175  0.8580234974149221  1.0000
  N   N3        1.0  0.47321243711862376  0.3563959673484195  0.35802349707258446  1.0000
  N   N4        1.0  0.02678756350365645  0.8563959671858706  0.14197650247670435  1.0000
  N   N5        1.0  0.3246473162746277  0.6330822936951628  0.7277006592428024  1.0000
  N   N6        1.0  0.17535268361840262  0.1330822932937542  0.7722993399463521  1.0000
  N   N7        1.0  0.6753526839436118  0.36691770654369704  0.27229934064882405  1.0000
  N   N8        1.0  0.8246473165998369  0.8669177063811483  0.22770065994527433  1.0000
  N   N9        1.0  0.7299976479994091  0.6409142379186279  0.5560764021777899  1.0000
  N   N10       1.0  0.7700023518049137  0.14091423808117662  0.943923597127824  1.0000
  N   N11       1.0  0.2700023522188305  0.3590857623202319  0.44392359771383655  1.0000
  N   N12       1.0  0.22999764737712886  0.8590857621576831  0.056076402628501054  1.0000
  N   N13       1.0  0.543591815406806  0.4881399143664024  0.6559273411628648  1.0000
  N   N14       1.0  0.95640818544359  0.9881399142038536  0.8440726592064005  1.0000
  N   N15       1.0  0.4564081848114335  0.5118600853085  0.3440726587287616  1.0000
  N   N16       1.0  0.04359181477464969  0.011860085471048777  0.15592734068522598  1.0000
  N   N17       1.0  0.6252180632121594  0.3721012243201413  0.6416670365280778  1.0000
  N   N18       1.0  0.8747819376382363  0.8721012241575926  0.8583329638411875  1.0000
  N   N19       1.0  0.37478193701595625  0.6278987759187183  0.35833296429189865  1.0000
  N   N20       1.0  0.1252180625800031  0.1278987760812672  0.14166703605043893  1.0000
  N   N21       1.0  0.7014601056044719  0.3163330731048072  0.6043173524933005  1.0000
  N   N22       1.0  0.7985398942097269  0.8163330735062158  0.8956826477406634  1.0000
  N   N23       1.0  0.2985398946137676  0.6836669265700953  0.39568264739832587  1.0000
  N   N24       1.0  0.2014601060085126  0.183666926732644  0.10431735215096294  1.0000
  N   N25       1.0  0.7419969458345839  0.9892178926670201  0.5958628399774409  1.0000
  N   N26       1.0  0.758003053979615  0.4892178928295689  0.904137160256523  1.0000
  N   N27       1.0  0.2580030543836556  0.010782107571839651  0.4041371599141854  1.0000
  N   N28       1.0  0.24199694623862456  0.5107821074092909  0.09586283963510336  1.0000
  O   O1        1.0  0.16961326108055805  0.7194612685109801  0.7862347430713605  1.0000
  O   O2        1.0  0.3303867388124722  0.21946126867352891  0.713765256117794  1.0000
  O   O3        1.0  0.8303867391376815  0.28053873172787963  0.21376525682026587  1.0000
  O   O4        1.0  0.6696132614057673  0.7805387315653308  0.2862347437738325  1.0000
  O   O5        1.0  0.8998855183728156  0.7303883334149128  0.5496980344587761  1.0000
  O   O6        1.0  0.6001144814413832  0.23038833357746152  0.9503019657751879  1.0000
  O   O7        1.0  0.10011448184542392  0.269611666823947  0.4503019654328503  1.0000
  O   O8        1.0  0.3998855187768563  0.7696116666613982  0.04969803411643849  1.0000
  O   O9        1.0  0.7298268723259728  0.47233030386126185  0.5466546452465104  1.0000
  O   O10       1.0  0.77017312747835  0.9723303042626703  0.9533453540591036  1.0000
  O   O11       1.0  0.2701731268560698  0.5276696958136406  0.4533453545098148  1.0000
  O   O12       1.0  0.22982687273988955  0.027669695976189373  0.04665464583252285  1.0000
  O   O13       1.0  0.3568713236421555  0.4672927252665937  0.7593340798022332  1.0000
  O   O14       1.0  0.14312867626075093  0.9672927251040448  0.7406659203152712  1.0000
  O   O15       1.0  0.6431286765760841  0.5327072744083087  0.2406659200893932  1.0000
  O   O16       1.0  0.8568713229212915  0.032707274570857495  0.2593340794410539  1.0000
  O   O17       1.0  0.6907410806699116  0.11674935972724862  0.621421303582107  1.0000
  O   O18       1.0  0.8092589191442874  0.6167493595646999  0.8785786966518571  1.0000
  O   O19       1.0  0.30925891851213094  0.8832506405116111  0.3785786961742183  1.0000
  O   O20       1.0  0.1907410810739522  0.3832506406741599  0.12142130323976931  1.0000
  O   O21       1.0  0.6345723870443783  0.9743196219540264  0.6411228510286434  1.0000
  O   O22       1.0  0.8654276138060175  0.47431962211657525  0.8588771493406219  1.0000
  O   O23       1.0  0.3654276131738612  0.025680377720875985  0.358877148862983  1.0000
  O   O24       1.0  0.134572386412222  0.5256803781222845  0.14112285055100454  1.0000
  O   O25       1.0  0.8215495369791642  0.939954502370448  0.5621764205497193  1.0000
  O   O26       1.0  0.6784504628251585  0.43995450196903935  0.9378235787558947  1.0000
  O   O27       1.0  0.1784504632390753  0.06004549786841184  0.4378235793419071  1.0000
  O   O28       1.0  0.32154953635688405  0.5600454977058631  0.06217642100043055  1.0000
