data_image0
_chemical_formula_structural       H92C68N12O20S8
_chemical_formula_sum              "H92 C68 N12 O20 S8"
_cell_length_a       7.508040122753197
_cell_length_b       17.568717429882746
_cell_length_c       15.553506060482247
_cell_angle_alpha    90.0
_cell_angle_beta     103.47480573191618
_cell_angle_gamma    90.0

_space_group_name_H-M_alt    "P 1"
_space_group_IT_number       1

loop_
  _space_group_symop_operation_xyz
  'x, y, z'

loop_
  _atom_site_type_symbol
  _atom_site_label
  _atom_site_symmetry_multiplicity
  _atom_site_fract_x
  _atom_site_fract_y
  _atom_site_fract_z
  _atom_site_occupancy
  H   H1        1.0  0.9199366682431452  0.12122442395126018  0.6513681793885442  1.0000
  H   H2        1.0  0.5800633320016035  0.6212244236700004  0.8486318202130848  1.0000
  H   H3        1.0  0.08006333192002052  0.8787755760554138  0.3486318203458751  1.0000
  H   H4        1.0  0.4199366681615624  0.3787755757674801  0.15136817952133452  1.0000
  H   H5        1.0  0.9975870975232469  0.19033568917855365  0.7367536827187868  1.0000
  H   H6        1.0  0.5024129027205851  0.6903356888972939  0.7632463175256805  1.0000
  H   H7        1.0  0.002412902639002213  0.8096643108281204  0.26324631765847095  1.0000
  H   H8        1.0  0.497587097441664  0.30966431110938014  0.23675368285157727  1.0000
  H   H9        1.0  0.8592164813283196  0.11334748697209199  0.7552491681406216  1.0000
  H   H10       1.0  0.6407835189155123  0.6133474872600257  0.7447508321038459  1.0000
  H   H11       1.0  0.1407835188348462  0.8866525124653886  0.24475083159379765  1.0000
  H   H12       1.0  0.3592164812467367  0.3866525127466483  0.255249168273412  1.0000
  H   H13       1.0  0.4103507997077247  0.06012779898225333  0.7385350811504698  1.0000
  H   H14       1.0  0.08964920026891086  0.5601277992701871  0.7614649189160992  1.0000
  H   H15       1.0  0.5896492004545245  0.9398722010244207  0.261464919226788  1.0000
  H   H16       1.0  0.910350799894255  0.439872200736487  0.23853508081832012  1.0000
  H   H17       1.0  0.33256054298960286  0.15537121880946653  0.71601436039053  1.0000
  H   H18       1.0  0.1674394569870327  0.6553712190974003  0.7839856396760388  1.0000
  H   H19       1.0  0.6674394571735631  0.8446287811972075  0.2839856393438892  1.0000
  H   H20       1.0  0.8325605431752163  0.34462878090927374  0.21601436070121893  1.0000
  H   H21       1.0  0.24215819235577943  0.08119606884755506  0.6397965223517528  1.0000
  H   H22       1.0  0.2578418076208561  0.5811960691354888  0.8602034777148162  1.0000
  H   H23       1.0  0.7578418078073864  0.9188039311591191  0.3602034773826665  1.0000
  H   H24       1.0  0.7421581925413931  0.4188039308711852  0.13979652266244166  1.0000
  H   H25       1.0  0.047342705981404894  0.8748387895326619  0.7633676500494821  1.0000
  H   H26       1.0  0.45265729399523064  0.37483878924472813  0.7366323500170867  1.0000
  H   H27       1.0  0.9526572941808442  0.12516121047401213  0.23663235032777577  1.0000
  H   H28       1.0  0.5473427047983281  0.625161210761946  0.2633676495628444  1.0000
  H   H29       1.0  0.9584015965102856  0.7531078869476874  0.7466474035860551  1.0000
  H   H30       1.0  0.5415984037335465  0.2531078872289471  0.7533525966584123  1.0000
  H   H31       1.0  0.04159840365196359  0.24689211305898665  0.2533525967912027  1.0000
  H   H32       1.0  0.45840159642961936  0.7468921127777269  0.2466474030760069  1.0000
  H   H33       1.0  0.8282245772845738  0.6441780519931518  0.6501251384871117  1.0000
  H   H34       1.0  0.6717754229592582  0.14417805227441155  0.8498748617573557  1.0000
  H   H35       1.0  0.17177542287767542  0.35582194801352224  0.34987486189014605  1.0000
  H   H36       1.0  0.32822457720299086  0.8558219477322625  0.15012513861990212  1.0000
  H   H37       1.0  0.15547109738296552  0.5028925939108218  0.46408162421005394  1.0000
  H   H38       1.0  0.34452890269861736  0.0028925936228879952  0.035918375657155686  1.0000
  H   H39       1.0  0.8445289027802003  0.49710740609585224  0.5359183755243654  1.0000
  H   H40       1.0  0.6554710974645485  0.997107406383786  0.9640816240772635  1.0000
  H   H41       1.0  0.35440988087310893  0.5261875783986412  0.35761014034884253  1.0000
  H   H42       1.0  0.1455901192075573  0.026187578110707346  0.14238986016120564  1.0000
  H   H43       1.0  0.6455901192891402  0.47381242160803294  0.6423898600284151  1.0000
  H   H44       1.0  0.854409880954692  0.9738124218959667  0.8576101402160522  1.0000
  H   H45       1.0  0.20015241514190504  0.6334123970297285  0.23811970006644212  1.0000
  H   H46       1.0  0.2998475849396779  0.13341239674179467  0.2618802998007675  1.0000
  H   H47       1.0  0.7998475850212607  0.3665876029769456  0.7618802996679771  1.0000
  H   H48       1.0  0.7001524152225712  0.8665876032648794  0.7381197005764903  1.0000
  H   H49       1.0  0.8995547866868183  0.8981999325209318  0.51801880715381  1.0000
  H   H50       1.0  0.6004452135579303  0.398199932232998  0.9819811924478189  1.0000
  H   H51       1.0  0.10044521347634752  0.10180006748574227  0.48198119258060934  1.0000
  H   H52       1.0  0.3995547866052354  0.6018000677736761  0.01801880728660032  1.0000
  H   H53       1.0  0.7670943366426647  0.7887356140426286  0.42156746784575727  1.0000
  H   H54       1.0  0.7329056637061148  0.2887356143238884  0.07843253219935092  1.0000
  H   H55       1.0  0.2329056635195845  0.2112643859640454  0.5784325325315007  1.0000
  H   H56       1.0  0.26709433645705105  0.7112643856827857  0.9215674675350684  1.0000
  H   H57       1.0  0.10867885900271998  0.08745864893851019  0.8953496612012506  1.0000
  H   H58       1.0  0.39132114097391557  0.5874586486572505  0.6046503388653185  1.0000
  H   H59       1.0  0.8913211411595292  0.9125413510681638  0.10465033917600733  1.0000
  H   H60       1.0  0.6086788591892504  0.4125413513494236  0.3953496608691008  1.0000
  H   H61       1.0  0.24767093616512148  0.16031158741328774  0.866597472357784  1.0000
  H   H62       1.0  0.25232906381243075  0.660311587132028  0.6334025270659465  1.0000
  H   H63       1.0  0.7523290639980443  0.8396884125933862  0.13340252737663533  1.0000
  H   H64       1.0  0.7476709349811279  0.339688412874646  0.36659747251398483  1.0000
  H   H65       1.0  0.33561328729067863  0.06609668603496631  0.8851743274721283  1.0000
  H   H66       1.0  0.1643867126859568  0.5660966863229001  0.6148256725944405  1.0000
  H   H67       1.0  0.6643867128724872  0.9339033139717077  0.11482567226229087  1.0000
  H   H68       1.0  0.8356132874762923  0.43390331368377394  0.3851743277828173  1.0000
  H   H69       1.0  0.3315087572070857  0.7081362484001789  0.5025197337326844  1.0000
  H   H70       1.0  0.16849124276954983  0.20813624811224507  0.9974802663338845  1.0000
  H   H71       1.0  0.6684912415864731  0.2918637516064952  0.49748026584724686  1.0000
  H   H72       1.0  0.8315087573926992  0.7918637518944289  0.0025197340433733193  1.0000
  H   H73       1.0  0.38159999819592205  0.7781016926567551  0.42780881629899803  1.0000
  H   H74       1.0  0.11840000051605377  0.27810169293801484  0.07219118341372358  1.0000
  H   H75       1.0  0.6184000005976367  0.22189830734991897  0.5721911832809332  1.0000
  H   H76       1.0  0.8815999982765883  0.7218983070686592  0.9278088168090463  1.0000
  H   H77       1.0  0.16565499466473235  0.7787571070343815  0.45504970300508796  1.0000
  H   H78       1.0  0.33434500541685064  0.2787571073156412  0.04495029686212167  1.0000
  H   H79       1.0  0.8343450054984334  0.22124289297229263  0.5449502967293314  1.0000
  H   H80       1.0  0.6656549933757915  0.7212428926910329  0.9550497033606482  1.0000
  H   H81       1.0  0.24997264213030465  0.9261940431873974  0.513968708796264  1.0000
  H   H82       1.0  0.2500273578463309  0.426194043468657  0.986031291270305  1.0000
  H   H83       1.0  0.7500273580319445  0.07380595681927671  0.48603129158099384  1.0000
  H   H84       1.0  0.749972642316835  0.573805956538017  0.013968708464114278  1.0000
  H   H85       1.0  0.46281606125467756  0.9135336540105715  0.4857359761342809  1.0000
  H   H86       1.0  0.03718393882690539  0.4135336542918312  0.01426402373292876  1.0000
  H   H87       1.0  0.5371839389084883  0.0864663459961026  0.5142640236001383  1.0000
  H   H88       1.0  0.9628160613362604  0.5864663457148429  0.9857359760014905  1.0000
  H   H89       1.0  0.4575185292635636  0.9356216499925633  0.5978254104744817  1.0000
  H   H90       1.0  0.0424814707130719  0.4356216497046295  0.9021745895920872  1.0000
  H   H91       1.0  0.5424814708986855  0.06437835001411077  0.4021745899027761  1.0000
  H   H92       1.0  0.9575185294500939  0.5643783503020445  0.09782541014233205  1.0000
  C   C1        1.0  0.9683391064641146  0.12985255065458845  0.7226448113629533  1.0000
  C   C2        1.0  0.5316608924101104  0.6298525509425222  0.7773551887270261  1.0000
  C   C3        1.0  0.03166089232852751  0.8701474493520855  0.2773551888598165  1.0000
  C   C4        1.0  0.4683391077530554  0.3701474490641518  0.22264481100739308  1.0000
  C   C5        1.0  0.2903486660685097  0.09544990558887895  0.7099061246487647  1.0000
  C   C6        1.0  0.20965133390812582  0.5954499058768127  0.7900938754178043  1.0000
  C   C7        1.0  0.7096513340946562  0.9045500944177951  0.29009387508565465  1.0000
  C   C8        1.0  0.7903486662541233  0.4045500941298613  0.20990612495945352  1.0000
  C   C9        1.0  0.14055069136154572  0.08340992652699179  0.760115699380003  1.0000
  C   C10       1.0  0.35944930861508984  0.5834099268149257  0.739884300686566  1.0000
  C   C11       1.0  0.8594493088007034  0.9165900734796821  0.2398843009972548  1.0000
  C   C12       1.0  0.640550691548076  0.41659007319174846  0.26011569904785337  1.0000
  C   C13       1.0  0.02678813108702724  0.965794088710165  0.6799549357571641  1.0000
  C   C14       1.0  0.47321186888960826  0.46579408899142477  0.8200450643094047  1.0000
  C   C15       1.0  0.9732118690752218  0.03420591129650896  0.3200450646200937  1.0000
  C   C16       1.0  0.5267881312735575  0.5342059110152493  0.17995493542501448  1.0000
  C   C17       1.0  0.9371398028883183  0.8323729315110056  0.6384770221486034  1.0000
  C   C18       1.0  0.5628601973564304  0.3323729317922653  0.8615229774530253  1.0000
  C   C19       1.0  0.06286019727484762  0.1676270684956685  0.36152297758581575  1.0000
  C   C20       1.0  0.4371398028067353  0.6676270682144088  0.13847702228139389  1.0000
  C   C21       1.0  0.9174379662074268  0.7601478066511956  0.6751316186708514  1.0000
  C   C22       1.0  0.5825620340364053  0.26014780636326185  0.8248683815736161  1.0000
  C   C23       1.0  0.08256203395482237  0.23985219335547842  0.3248683817064064  1.0000
  C   C24       1.0  0.41743796612676054  0.7398521936434121  0.17513161816080317  1.0000
  C   C25       1.0  0.8444518995328525  0.6996203159994722  0.6214824739942415  1.0000
  C   C26       1.0  0.6555481007118962  0.19962031628073185  0.8785175256073874  1.0000
  C   C27       1.0  0.15554810063031327  0.3003796834380084  0.3785175257401777  1.0000
  C   C28       1.0  0.34445189945126964  0.8003796837259421  0.1214824741270319  1.0000
  C   C29       1.0  0.7894960375298674  0.7105477625115013  0.5299185034834393  1.0000
  C   C30       1.0  0.7105039627148814  0.2105477627927611  0.9700814961181895  1.0000
  C   C31       1.0  0.21050396263329857  0.2894522374951727  0.47008149625097995  1.0000
  C   C32       1.0  0.28949603744828434  0.7894522372139129  0.029918503616229636  1.0000
  C   C33       1.0  0.9729165854157343  0.5868574920820963  0.4056762553941899  1.0000
  C   C34       1.0  0.5270834149330452  0.08685749179416248  0.09432374465091824  1.0000
  C   C35       1.0  0.027083414747431582  0.41314250792457774  0.5943237443402293  1.0000
  C   C36       1.0  0.4729165852292039  0.9131425082125116  0.9056762557263396  1.0000
  C   C37       1.0  0.22741872128971752  0.5570574971712843  0.352703003964705  1.0000
  C   C38       1.0  0.2725812787909487  0.057057496883350475  0.1472969965453432  1.0000
  C   C39       1.0  0.7725812788725316  0.4429425028353898  0.6472969964125528  1.0000
  C   C40       1.0  0.7274187200016934  0.9429425031233235  0.8527030036774267  1.0000
  C   C41       1.0  0.15137827228549267  0.6108706929138439  0.29305396652010796  1.0000
  C   C42       1.0  0.34862172779609024  0.11087069319510366  0.20694603334710163  1.0000
  C   C43       1.0  0.8486217265071493  0.3891293070928301  0.706946033702662  1.0000
  C   C44       1.0  0.6513782723670756  0.8891293068115704  0.7930539663873176  1.0000
  C   C45       1.0  0.8838805343966177  0.8426821667026384  0.546309345314196  1.0000
  C   C46       1.0  0.6161194658481309  0.34268216641470456  0.9536906542874328  1.0000
  C   C47       1.0  0.11611946576654804  0.15731783330403568  0.4536906544202232  1.0000
  C   C48       1.0  0.38388053431503494  0.6573178335919695  0.0463093454469864  1.0000
  C   C49       1.0  0.8105407945324088  0.78146613005726  0.49284189078376356  1.0000
  C   C50       1.0  0.6894592044467637  0.2814661303385197  0.0071581091068566825  1.0000
  C   C51       1.0  0.18945920426023335  0.21853386994941407  0.5071581094390063  1.0000
  C   C52       1.0  0.3105407957164022  0.7185338696681544  0.9928418906275627  1.0000
  C   C53       1.0  0.21249496348268737  0.09978421230784745  0.8580198708142077  1.0000
  C   C54       1.0  0.28750503649394815  0.5997842125957812  0.6419801292523611  1.0000
  C   C55       1.0  0.7875050366795617  0.9002157876988266  0.14198012956305014  1.0000
  C   C56       1.0  0.7124949636692176  0.4002157874108928  0.358019870482058  1.0000
  C   C57       1.0  0.38310822702398634  0.8201569213863876  0.5585652100043743  1.0000
  C   C58       1.0  0.11689177295264923  0.3201569210984538  0.9414347900621947  1.0000
  C   C59       1.0  0.6168917731391795  0.17984307862028648  0.441434789730045  1.0000
  C   C60       1.0  0.8831082272095999  0.6798430789082203  0.05856521031506314  1.0000
  C   C61       1.0  0.31244685742998435  0.7676104140113094  0.48165110456176197  1.0000
  C   C62       1.0  0.18755314265159861  0.26761041429256904  0.018348895305447647  1.0000
  C   C63       1.0  0.6875531427331816  0.23238958599536474  0.5183488951726573  1.0000
  C   C64       1.0  0.8124468575115672  0.7323895857141051  0.9816511044289715  1.0000
  C   C65       1.0  0.3900005987069922  0.9039716617552768  0.5384864439282218  1.0000
  C   C66       1.0  0.10999940126964333  0.403971661467343  0.9615135561383472  1.0000
  C   C67       1.0  0.6099994014561737  0.09602833825139732  0.4615135558061975  1.0000
  C   C68       1.0  0.8900005975229988  0.596028338539331  0.03848644408442266  1.0000
  N   N1        1.0  0.8627365479078882  0.5773400813395458  0.4606398261943321  1.0000
  N   N2        1.0  0.6372634510712841  0.07734008162080551  0.03936017369628811  1.0000
  N   N3        1.0  0.13726345225436093  0.42265991866712826  0.5393601741829257  1.0000
  N   N4        1.0  0.3627365477222746  0.9226599183858686  0.9606398258836432  1.0000
  N   N5        1.0  0.007247835751626984  0.8899748027938061  0.6978236387792952  1.0000
  N   N6        1.0  0.4927521642250085  0.3899748030750658  0.8021763612872739  1.0000
  N   N7        1.0  0.9927521644106222  0.11002519721286798  0.3021763615979627  1.0000
  N   N8        1.0  0.5072478359381573  0.6100251969316083  0.19782363844714548  1.0000
  N   N9        1.0  0.12656141843799312  0.5443461566371056  0.41492374605755256  1.0000
  N   N10       1.0  0.3734385816435898  0.0443461563491718  0.08507625380965705  1.0000
  N   N11       1.0  0.873438581724256  0.45565384336956843  0.5850762543197052  1.0000
  N   N12       1.0  0.626561418519576  0.9556538436575023  0.9149237459247621  1.0000
  O   O1        1.0  0.09389699095611152  0.0012855508713222408  0.7584430185679759  1.0000
  O   O2        1.0  0.40610300902052404  0.501285551159256  0.7415569814985931  1.0000
  O   O3        1.0  0.9061030092070543  0.9987144491353518  0.2415569811664434  1.0000
  O   O4        1.0  0.5938969911417252  0.498714448847418  0.2584430188786648  1.0000
  O   O5        1.0  0.6157781618756379  0.6661345739498359  0.37439716415991414  1.0000
  O   O6        1.0  0.8842218371035342  0.1661345742310957  0.12560283573070602  1.0000
  O   O7        1.0  0.38422183691792067  0.3338654260568381  0.6256028354200172  1.0000
  O   O8        1.0  0.11577816305963151  0.8338654257755783  0.8743971640037133  1.0000
  O   O9        1.0  0.9892889450422995  0.995509624979877  0.6064796404319645  1.0000
  O   O10       1.0  0.5107110552024492  0.49550962526113673  0.8935203591696643  1.0000
  O   O11       1.0  0.010711055120866331  0.004490375026797077  0.3935203593024547  1.0000
  O   O12       1.0  0.4892889449607165  0.5044903747455374  0.10647964056475488  1.0000
  O   O13       1.0  0.575926172840968  0.5916109665649834  0.5059652788561201  1.0000
  O   O14       1.0  0.9240738274037807  0.0916109662770495  0.9940347207455087  1.0000
  O   O15       1.0  0.42407382732219784  0.40838903344169075  0.4940347208782991  1.0000
  O   O16       1.0  0.07592617275938508  0.9083890331604311  0.005965278988910487  1.0000
  O   O17       1.0  0.4297597389095368  0.7954623168011913  0.6346779813853833  1.0000
  O   O18       1.0  0.07024026106709877  0.2954623170824511  0.8653220186811855  1.0000
  O   O19       1.0  0.5702402598831053  0.20453768320548274  0.36532201883738646  1.0000
  O   O20       1.0  0.9297597390960671  0.7045376829242229  0.13467798105323375  1.0000
  S   S1        1.0  0.6946114955371412  0.6337426231844353  0.46190498876504105  1.0000
  S   S2        1.0  0.8053885034420312  0.13374262346569496  0.038095011125579115  1.0000
  S   S3        1.0  0.3053885032564176  0.3662573762530453  0.5380950108148902  1.0000
  S   S4        1.0  0.19461149672113467  0.8662573765409791  0.9619049886088401  1.0000
  S   S5        1.0  0.9497957913897009  0.6457449113902515  0.313515925138537  1.0000
  S   S6        1.0  0.5502042089590785  0.1457449116715112  0.1864840749065712  1.0000
  S   S7        1.0  0.050204208773464896  0.3542550886164226  0.6864840745958822  1.0000
  S   S8        1.0  0.4497957912031706  0.8542550883351628  0.8135159254706866  1.0000
