data_image0
_chemical_formula_structural       H42C44N12F24P4
_chemical_formula_sum              "H42 C44 N12 F24 P4"
_cell_length_a       10.568020726665646
_cell_length_b       10.884678635373879
_cell_length_c       11.972541955103395
_cell_angle_alpha    69.52661450550455
_cell_angle_beta     85.22291344186633
_cell_angle_gamma    82.21088430052703

_space_group_name_H-M_alt    "P 1"
_space_group_IT_number       1

loop_
  _space_group_symop_operation_xyz
  'x, y, z'

loop_
  _atom_site_type_symbol
  _atom_site_label
  _atom_site_symmetry_multiplicity
  _atom_site_fract_x
  _atom_site_fract_y
  _atom_site_fract_z
  _atom_site_occupancy
  H   H1        1.0  0.6890019156030003  0.17677949557303302  0.16879029097726816  1.0000
  H   H2        1.0  0.3109980841177403  0.8232205051116784  0.8312097089193181  1.0000
  H   H3        1.0  0.08816567067417132  0.21336338812702882  0.13589814743970025  1.0000
  H   H4        1.0  0.9118343301185594  0.786636611628087  0.8641018524513633  1.0000
  H   H5        1.0  0.9641014977440725  0.4198435662395351  0.9571894504400903  1.0000
  H   H6        1.0  0.035898502101688684  0.5801564335189434  0.04281054945377953  1.0000
  H   H7        1.0  0.7262123227299578  0.5123721189458497  0.9375785535081231  1.0000
  H   H8        1.0  0.2737876771158032  0.48762788081262914  0.06242144638574678  1.0000
  H   H9        1.0  0.6101489364339053  0.41364539555067886  0.02743891092946887  1.0000
  H   H10       1.0  0.38985106435882544  0.586354604204437  0.9725610889615947  1.0000
  H   H11       1.0  0.4962510570300391  0.2908687770419193  0.9469445250045587  1.0000
  H   H12       1.0  0.5037489426907016  0.7091312236427921  0.05305547489202757  1.0000
  H   H13       1.0  0.461041348845491  0.20875911490906948  0.7864787034740003  1.0000
  H   H14       1.0  0.5389586519472398  0.7912408848460462  0.21352129641706313  1.0000
  H   H15       1.0  0.8086762092195189  0.3545284773444947  0.6041904643828275  1.0000
  H   H16       1.0  0.19132379050122167  0.6454715233402168  0.3958095355137587  1.0000
  H   H17       1.0  0.8454283331728355  0.4338405895787836  0.7670909518608063  1.0000
  H   H18       1.0  0.1545716665479051  0.5661594111059278  0.23290904803577986  1.0000
  H   H19       1.0  0.6720857238984455  0.2738344587873884  0.504739437626243  1.0000
  H   H20       1.0  0.32791427582229515  0.726165541897323  0.49526056227034343  1.0000
  H   H21       1.0  0.651091438880122  0.11581239281850107  0.6135681171277738  1.0000
  H   H22       1.0  0.3489085609656392  0.8841876069399776  0.386431882766096  1.0000
  H   H23       1.0  0.42178982507074764  0.05345574132057403  0.673224303131305  1.0000
  H   H24       1.0  0.5782101747750135  0.9465442584379046  0.32677569676256485  1.0000
  H   H25       1.0  0.2194072555851527  0.3873598534818379  0.42338682490138535  1.0000
  H   H26       1.0  0.7805927452075782  0.6126401462732778  0.5766131749896782  1.0000
  H   H27       1.0  0.4723000681387734  0.43179642860201056  0.418636363943134  1.0000
  H   H28       1.0  0.5276999317069876  0.5682035711564682  0.5813636359507358  1.0000
  H   H29       1.0  0.055553410751037834  0.2813654980537866  0.4540202195295869  1.0000
  H   H30       1.0  0.9444465889361198  0.7186345022896856  0.5459797812592176  1.0000
  H   H31       1.0  0.8710075463166708  0.15236625346321317  0.5193297958961844  1.0000
  H   H32       1.0  0.1289924544760601  0.8476337462919024  0.4806702039948791  1.0000
  H   H33       1.0  0.8883944198500319  0.9417114140608165  0.6940881339522559  1.0000
  H   H34       1.0  0.11160557999572915  0.05828858569766219  0.305911865941614  1.0000
  H   H35       1.0  0.017240873743434956  0.1955724762199211  0.816513571401094  1.0000
  H   H36       1.0  0.9827591261023261  0.8044275235385574  0.18348642849277588  1.0000
  H   H37       1.0  0.8101279980748555  0.10749308474309245  0.8791476404431093  1.0000
  H   H38       1.0  0.18987200177090566  0.892506915015386  0.12085235945076049  1.0000
  H   H39       1.0  0.3001986008585476  0.0759582489922557  0.993147644464895  1.0000
  H   H40       1.0  0.6998013999341832  0.9240417507628599  0.006852355426168472  1.0000
  H   H41       1.0  0.23407107023432674  0.19326953716038545  0.8733758037364606  1.0000
  H   H42       1.0  0.7659289304333836  0.8067304635209629  0.12662419615731943  1.0000
  C   C1        1.0  0.7793345086342983  0.21564585327924676  0.13708142939299706  1.0000
  C   C2        1.0  0.22066549121146284  0.784354146479232  0.8629185705008728  1.0000
  C   C3        1.0  0.987897009032969  0.23752623604720136  0.1168586209804054  1.0000
  C   C4        1.0  0.01210299081279193  0.7624737637112773  0.8831413789134644  1.0000
  C   C5        1.0  0.9266279961762296  0.34031997235297723  0.029886190672868074  1.0000
  C   C6        1.0  0.07337200363594837  0.659680027064262  0.9701138101132201  1.0000
  C   C7        1.0  0.6959975004115097  0.41316606463698646  0.9694771982041135  1.0000
  C   C8        1.0  0.3040024994342513  0.5868339351214924  0.03052280168975626  1.0000
  C   C9        1.0  0.6729724049869202  0.3677132500266457  0.8683542922301907  1.0000
  C   C10       1.0  0.3270275948588408  0.6322867497318329  0.13164570766367922  1.0000
  C   C11       1.0  0.5654928492769591  0.3041798716410937  0.8723425059206057  1.0000
  C   C12       1.0  0.43450715044378163  0.6958201290436177  0.12765749397598064  1.0000
  C   C13       1.0  0.5459242719090094  0.2576947460249672  0.7811509023983978  1.0000
  C   C14       1.0  0.4540757288837214  0.7423052537301483  0.21884909749266568  1.0000
  C   C15       1.0  0.6336328225925287  0.27465072827744175  0.6844114809200222  1.0000
  C   C16       1.0  0.3663671772532323  0.725349271481037  0.31558851897384754  1.0000
  C   C17       1.0  0.7411129440335974  0.338704795373503  0.6802750602249035  1.0000
  C   C18       1.0  0.2588870558121638  0.6612952043849757  0.31972493966896637  1.0000
  C   C19       1.0  0.7608438870621499  0.3847549665384976  0.7715965210272687  1.0000
  C   C20       1.0  0.23915611278361112  0.615245033219981  0.228403478866601  1.0000
  C   C21       1.0  0.617990072612963  0.22176015830512735  0.5857883508025766  1.0000
  C   C22       1.0  0.3820099272327982  0.7782398414533512  0.4142116490912932  1.0000
  C   C23       1.0  0.4021144705121518  0.14921358078405716  0.604972249220496  1.0000
  C   C24       1.0  0.5978855293000263  0.8507864186331822  0.3950277515655921  1.0000
  C   C25       1.0  0.2988645706628183  0.32597959812645  0.473326827898387  1.0000
  C   C26       1.0  0.7011354301299125  0.6740204016286657  0.5266731719926765  1.0000
  C   C27       1.0  0.42269300602870746  0.3484398369742812  0.4715050689966143  1.0000
  C   C28       1.0  0.5773069938170536  0.6515601627841976  0.5284949308972555  1.0000
  C   C29       1.0  0.17613579709522087  0.13487949067871513  0.5886843345294284  1.0000
  C   C30       1.0  0.8238642027505401  0.8651205090797637  0.4113156653644415  1.0000
  C   C31       1.0  0.06368350670604034  0.1883870504491938  0.5280838931685247  1.0000
  C   C32       1.0  0.9363164931397208  0.8116129493092847  0.4719161067253453  1.0000
  C   C33       1.0  0.9596006923133718  0.11592707361326346  0.566465303190652  1.0000
  C   C34       1.0  0.04039930753238947  0.8840729261452153  0.4335346967032178  1.0000
  C   C35       1.0  0.9694086200639634  0.9980212548777146  0.6626381009329892  1.0000
  C   C36       1.0  0.030591379656777034  0.001978745806996758  0.3373618989635971  1.0000
  C   C37       1.0  0.08730231820350035  0.9567713187651659  0.7162016428590247  1.0000
  C   C38       1.0  0.9126976815172403  0.04322868191954547  0.2837983570375617  1.0000
  C   C39       1.0  0.12007506473422012  0.050637451509969435  0.9637799242259488  1.0000
  C   C40       1.0  0.8799249351115409  0.9493625482485092  0.03622007566792107  1.0000
  C   C41       1.0  0.01059137381369903  0.10928631659974206  0.8970397986948512  1.0000
  C   C42       1.0  0.989408626032062  0.8907136831587364  0.10296020119901883  1.0000
  C   C43       1.0  0.8932691711299573  0.059787124126704255  0.9326913843077569  1.0000
  C   C44       1.0  0.1067308285907834  0.9402128765580072  0.06730861558882936  1.0000
  N   N1        1.0  0.894552063048898  0.16064757176735064  0.18293409454646858  1.0000
  N   N2        1.0  0.10544793679686311  0.8393524279911281  0.8170659053474013  1.0000
  N   N3        1.0  0.7977501655260695  0.32499791493699437  0.04499681624400245  1.0000
  N   N4        1.0  0.20224983419467105  0.6750020857477171  0.9550031836525839  1.0000
  N   N5        1.0  0.4848285541262517  0.23722818034249732  0.5534752091205927  1.0000
  N   N6        1.0  0.5151714457195093  0.7627718194159812  0.44652479077327717  1.0000
  N   N7        1.0  0.2877463940110141  0.20140778231966028  0.5566154256822928  1.0000
  N   N8        1.0  0.7122536057097265  0.7985922183650512  0.44338457421429345  1.0000
  N   N9        1.0  0.18980620211416507  0.0209570069309888  0.6791979679573008  1.0000
  N   N10       1.0  0.8101937976065756  0.9790429937537227  0.32080203193928547  1.0000
  N   N11       1.0  0.2391911601695866  0.09662709721176713  0.9260533256312066  1.0000
  N   N12       1.0  0.7608088395511542  0.9033729034729443  0.07394667426537957  1.0000
  F   F1        1.0  0.7592961569148922  0.7433457260905174  0.7385884979578862  1.0000
  F   F2        1.0  0.2407038438778387  0.2566542736645982  0.26141150193317736  1.0000
  F   F3        1.0  0.7004227922798189  0.9357820985203193  0.7818956573704098  1.0000
  F   F4        1.0  0.2995772083878914  0.06421790216102903  0.2181043425233702  1.0000
  F   F5        1.0  0.49367628389729007  0.8828030500630564  0.827684677314235  1.0000
  F   F6        1.0  0.5063237158234507  0.11719695062165497  0.17231532258235122  1.0000
  F   F7        1.0  0.5505327188427256  0.6895200672009648  0.7862829002849556  1.0000
  F   F8        1.0  0.44946728084443205  0.31047993314250705  0.2137171005038491  1.0000
  F   F9        1.0  0.5893476219994431  0.8914399981887708  0.6439393623028405  1.0000
  F   F10       1.0  0.410652377812735  0.10856000122846822  0.35606063848324765  1.0000
  F   F11       1.0  0.6647956741598163  0.7342756455693089  0.9220539778124065  1.0000
  F   F12       1.0  0.3352043266329145  0.26572435418580687  0.07794602207865699  1.0000
  F   F13       1.0  0.31958352376995525  0.5093203543292584  0.6369744888208289  1.0000
  F   F14       1.0  0.6804164759172023  0.49067964601421354  0.36302551196797583  1.0000
  F   F15       1.0  0.17291977997334324  0.6703552422299075  0.6733588642615821  1.0000
  F   F16       1.0  0.8270802198724178  0.32964475752857114  0.32664113563228775  1.0000
  F   F17       1.0  0.0331571577498922  0.5139578383302899  0.7657814969539506  1.0000
  F   F18       1.0  0.9668428420958687  0.48604216142818873  0.2342185029399193  1.0000
  F   F19       1.0  0.1804709367176386  0.3519318610384082  0.7276808334223693  1.0000
  F   F20       1.0  0.8195290630031021  0.6480681396463033  0.27231916647421683  1.0000
  F   F21       1.0  0.11165109911041744  0.5406204820693111  0.5741172313278038  1.0000
  F   F22       1.0  0.8883489016823133  0.45937951768580443  0.42588276856325974  1.0000
  F   F23       1.0  0.2398124456031183  0.4793553045674961  0.8299567888371473  1.0000
  F   F24       1.0  0.7601875542426427  0.5206446951909824  0.17004321105672257  1.0000
  P   P1        1.0  0.6261362217328661  0.8114515422003397  0.7832962645828171  1.0000
  P   P2        1.0  0.373863778112895  0.18854845755813895  0.21670373531105286  1.0000
  P   P3        1.0  0.1769605044092945  0.5106698343338548  0.7020283198608963  1.0000
  P   P4        1.0  0.8230394962584159  0.48933016634749354  0.29797168003288366  1.0000
