data_image0
_chemical_formula_structural       H36C28N8O4I4
_chemical_formula_sum              "H36 C28 N8 O4 I4"
_cell_length_a       7.9474461376966365
_cell_length_b       8.29320372624779
_cell_length_c       14.61722198219047
_cell_angle_alpha    107.10437347676194
_cell_angle_beta     92.65418738039607
_cell_angle_gamma    103.85428427901813

_space_group_name_H-M_alt    "P 1"
_space_group_IT_number       1

loop_
  _space_group_symop_operation_xyz
  'x, y, z'

loop_
  _atom_site_type_symbol
  _atom_site_label
  _atom_site_symmetry_multiplicity
  _atom_site_fract_x
  _atom_site_fract_y
  _atom_site_fract_z
  _atom_site_occupancy
  H   H1        1.0  0.1637427841488458  0.7863554717092095  0.8341981136100346  1.0000
  H   H2        1.0  0.8362572166165871  0.21364452899994188  0.1658018865252192  1.0000
  H   H3        1.0  0.11420106008707072  0.8877797637508478  0.9523680192403317  1.0000
  H   H4        1.0  0.8857989403608225  0.1122202357111918  0.047631980885657295  1.0000
  H   H5        1.0  0.3317718780271989  0.8808950505899311  0.9344067533526174  1.0000
  H   H6        1.0  0.668228121165398  0.11910494888119559  0.06559324678070014  1.0000
  H   H7        1.0  0.4327905825334865  0.21295251026724835  0.010812663531944345  1.0000
  H   H8        1.0  0.5672094179144067  0.7870474891947913  0.9891873365940447  1.0000
  H   H9        1.0  0.2133506912198289  0.2220218895690087  0.024946550638824113  1.0000
  H   H10       1.0  0.7866493081172792  0.7779781107535466  0.9750534487823399  1.0000
  H   H11       1.0  0.3413348086122997  0.3493342435377436  0.960396173925613  1.0000
  H   H12       1.0  0.6586651921531331  0.6506657571714075  0.039603826209640806  1.0000
  H   H13       1.0  0.5697258269809689  0.15235131824544315  0.5852585249507237  1.0000
  H   H14       1.0  0.430274172211628  0.8476486812256838  0.41474147518259374  1.0000
  H   H15       1.0  0.3727354903242813  0.2255070919648893  0.48066932158468584  1.0000
  H   H16       1.0  0.627264510123612  0.7744929074971505  0.5193306785413033  1.0000
  H   H17       1.0  0.8207482908257394  0.397922738164747  0.3386917247787836  1.0000
  H   H18       1.0  0.1792517099396934  0.6020772625444042  0.6613082753564702  1.0000
  H   H19       1.0  0.9995918713499068  0.3134848453848025  0.4504754288199905  1.0000
  H   H20       1.0  0.0004081278426901244  0.6865151540863244  0.549524571313327  1.0000
  H   H21       1.0  0.25866661372706146  0.4266280149726474  0.40569819885362557  1.0000
  H   H22       1.0  0.7413333854655354  0.5733719844984794  0.5943018012796917  1.0000
  H   H23       1.0  0.22620132983849922  0.19989702345906657  0.3411386775396886  1.0000
  H   H24       1.0  0.7737986709269338  0.8001029772500847  0.6588613225955652  1.0000
  H   H25       1.0  0.10791557682102615  0.41919480463869624  0.25705332013140153  1.0000
  H   H26       1.0  0.8920844239444067  0.580805196070455  0.7429466800038523  1.0000
  H   H27       1.0  0.18583732130777372  0.24230169298686552  0.18855278510483406  1.0000
  H   H28       1.0  0.8141626794576592  0.7576983077222857  0.8114472150304198  1.0000
  H   H29       1.0  0.38870673548040047  0.6288493547993999  0.27419950638911805  1.0000
  H   H30       1.0  0.6112932637121965  0.371150644671727  0.7258004937441993  1.0000
  H   H31       1.0  0.3795459306509171  0.4914678224759299  0.15504163669796667  1.0000
  H   H32       1.0  0.620454068686191  0.5085321778466253  0.8449583627231972  1.0000
  H   H33       1.0  0.5725482833941474  0.33941998373118176  0.20548927447124915  1.0000
  H   H34       1.0  0.4274517161159891  0.6605800169870566  0.7945107256713331  1.0000
  H   H35       1.0  0.6525313831728162  0.5506170748833975  0.2942807647359262  1.0000
  H   H36       1.0  0.347468617275077  0.44938292457864226  0.7057192353900631  1.0000
  C   C1        1.0  0.29068019414744073  0.10183151776713638  0.7304113676009534  1.0000
  C   C2        1.0  0.709319805045156  0.8981684817039903  0.269588632532364  1.0000
  C   C3        1.0  0.08274383633335218  0.08971659574898437  0.8314911497970061  1.0000
  C   C4        1.0  0.9172561644320807  0.9102834049601669  0.16850885033824772  1.0000
  C   C5        1.0  0.24816972595112266  0.07054614668643922  0.8824346816176486  1.0000
  C   C6        1.0  0.7518302735590138  0.929453854031799  0.11756531852493345  1.0000
  C   C7        1.0  0.21105653800980745  0.8946408946106315  0.9016448557912831  1.0000
  C   C8        1.0  0.7889434624380859  0.10535910485140837  0.09835514433470613  1.0000
  C   C9        1.0  0.3129765815082019  0.22418365026427128  0.975596500658696  1.0000
  C   C10       1.0  0.6870234189396913  0.7758163491977685  0.024403499467293255  1.0000
  C   C11       1.0  0.6204885040764059  0.20698969359024086  0.5297460097429694  1.0000
  C   C12       1.0  0.3795114952607022  0.7930103067323144  0.4702539896781946  1.0000
  C   C13       1.0  0.5101955612994389  0.24883520212408522  0.4704262837367479  1.0000
  C   C14       1.0  0.4898044378931579  0.7511647973470416  0.5295737163965695  1.0000
  C   C15       1.0  0.5771615147935777  0.3202874532483148  0.39822652161751276  1.0000
  C   C16       1.0  0.42283848579882677  0.6797125470651534  0.6017734777963231  1.0000
  C   C17       1.0  0.7593751596581811  0.34361171588964323  0.39194688239963554  1.0000
  C   C18       1.0  0.24062483985195546  0.6563882848285952  0.6080531177429467  1.0000
  C   C19       1.0  0.8602668556141639  0.2974196404634666  0.454185456303899  1.0000
  C   C20       1.0  0.13973314497824044  0.7025803598500017  0.5458145431099367  1.0000
  C   C21       1.0  0.2852480937893917  0.3337203923542109  0.34022743094075786  1.0000
  C   C22       1.0  0.7147519054032051  0.6662796071169159  0.6597725691925594  1.0000
  C   C23       1.0  0.22203306426017996  0.36591218011946197  0.24829137358231979  1.0000
  C   C24       1.0  0.7779669352499566  0.6340878205987764  0.7517086265602624  1.0000
  C   C25       1.0  0.38123093103876654  0.49441627962721935  0.23051687027283468  1.0000
  C   C26       1.0  0.6187690681538303  0.5055837198439075  0.7694831298604826  1.0000
  C   C27       1.0  0.5369443220858466  0.43912649031921136  0.2642249793597155  1.0000
  C   C28       1.0  0.46305567867958625  0.5608735103899398  0.7357750207755384  1.0000
  N   N1        1.0  0.11588580993807449  0.1074819606342731  0.7449644760505193  1.0000
  N   N2        1.0  0.8841141892545222  0.8925180388368535  0.255035524082798  1.0000
  N   N3        1.0  0.36699211270075366  0.07848925235360298  0.8092061672144895  1.0000
  N   N4        1.0  0.6330078868093828  0.9215107483646353  0.19079383292809274  1.0000
  N   N5        1.0  0.7933306844107105  0.23176866374924354  0.5229616148916564  1.0000
  N   N6        1.0  0.20666931635472238  0.7682313369599078  0.4770383852435975  1.0000
  N   N7        1.0  0.4742197629101367  0.3635447327435508  0.33908307203630017  1.0000
  N   N8        1.0  0.5257802375377565  0.636455266718489  0.6609169280896888  1.0000
  O   O1        1.0  0.3552557228936621  0.11683979275700297  0.6573809688380922  1.0000
  O   O2        1.0  0.6447442775542311  0.8831602067050367  0.34261903128789695  1.0000
  O   O3        1.0  0.9459104695305749  0.08737045230268016  0.8705630071481371  1.0000
  O   O4        1.0  0.05408953106182947  0.912629548010788  0.1294369922656987  1.0000
  I   I1        1.0  0.6298769635728446  0.08510664459783453  0.8293982434830839  1.0000
  I   I2        1.0  0.37012303561975224  0.9148933548732924  0.17060175665023353  1.0000
  I   I3        1.0  0.957222329761973  0.167623005749417  0.6325289170329069  1.0000
  I   I4        1.0  0.04277766943062369  0.8323769937217098  0.3674710831004105  1.0000
