data_image0
_chemical_formula_structural       H80C68N16O8I8
_chemical_formula_sum              "H80 C68 N16 O8 I8"
_cell_length_a       5.947985193133594
_cell_length_b       33.8481641430326
_cell_length_c       10.05255787259978
_cell_angle_alpha    90.0
_cell_angle_beta     97.37830405273348
_cell_angle_gamma    90.0

_space_group_name_H-M_alt    "P 1"
_space_group_IT_number       1

loop_
  _space_group_symop_operation_xyz
  'x, y, z'

loop_
  _atom_site_type_symbol
  _atom_site_label
  _atom_site_symmetry_multiplicity
  _atom_site_fract_x
  _atom_site_fract_y
  _atom_site_fract_z
  _atom_site_occupancy
  H   H1        1.0  0.5496103354561197  0.16972370069242096  0.5772071179463287  1.0000
  H   H2        1.0  0.9503896650265354  0.6697237006476238  0.9227928812677533  1.0000
  H   H3        1.0  0.45038966494253235  0.8302762992179848  0.4227928818640752  1.0000
  H   H4        1.0  0.04961033537211666  0.33027629926278196  0.07720711854265055  1.0000
  H   H5        1.0  0.39354648895349764  0.12776903945882742  0.6223571740658945  1.0000
  H   H6        1.0  0.10645351186834241  0.6277690394140303  0.877642825849893  1.0000
  H   H7        1.0  0.6064535114451546  0.8722309604515784  0.3776428257445094  1.0000
  H   H8        1.0  0.8935464885303098  0.37223096049637544  0.12235717396051086  1.0000
  H   H9        1.0  0.26375367783792325  0.16266259838300082  0.5021682308309627  1.0000
  H   H10       1.0  0.23624632130440124  0.6626625983382037  0.9978317690925478  1.0000
  H   H11       1.0  0.7362463225607289  0.837337401822842  0.4978317689794411  1.0000
  H   H12       1.0  0.763753677645381  0.3373374018676391  0.002168231728626701  1.0000
  H   H13       1.0  0.7882529410015172  0.08405636087018487  0.39690441844337904  1.0000
  H   H14       1.0  0.711747058973947  0.5840563611208248  0.10309558126164127  1.0000
  H   H15       1.0  0.21174705939713484  0.9159436390402209  0.6030955813670249  1.0000
  H   H16       1.0  0.28825294142470526  0.415943639085018  0.8969044185487627  1.0000
  H   H17       1.0  0.6828746487642633  0.07872795755596479  0.5545961277301963  1.0000
  H   H18       1.0  0.8171253502695222  0.5787279575111678  0.9454038724946563  1.0000
  H   H19       1.0  0.3171253516343888  0.921272042354441  0.4454038720802076  1.0000
  H   H20       1.0  0.18287464868026015  0.4212720423992381  0.05459612832651816  1.0000
  H   H21       1.0  0.8556682241541378  0.12011703360983916  0.5237254276535491  1.0000
  H   H22       1.0  0.6443317765591632  0.620117033565042  0.9762745725635805  1.0000
  H   H23       1.0  0.14433177624451418  0.8798829665960036  0.47627457215685476  1.0000
  H   H24       1.0  0.3556682238394889  0.37988296664080073  0.02372542724682343  1.0000
  H   H25       1.0  0.45854549242275594  0.10377903732551683  0.9561493435187602  1.0000
  H   H26       1.0  0.04145450839908407  0.6037790375761567  0.5438506563970273  1.0000
  H   H27       1.0  0.5414545079758961  0.8962209625848889  0.043850656291643676  1.0000
  H   H28       1.0  0.9585454919995682  0.3962209626296861  0.4561493434133766  1.0000
  H   H29       1.0  0.16261025445689678  0.07635518012376447  0.7818565676112623  1.0000
  H   H30       1.0  0.33738974468542776  0.5763551800789674  0.7181434323122483  1.0000
  H   H31       1.0  0.8373897459417553  0.9236448200820783  0.21814343219914162  1.0000
  H   H32       1.0  0.6626102540337089  0.42364482012687543  0.2818565675058786  1.0000
  H   H33       1.0  0.6120308127737186  0.978422615183904  0.735687594870594  1.0000
  H   H34       1.0  0.887969186260067  0.478422615228701  0.7643124053542589  1.0000
  H   H35       1.0  0.38796918617606396  0.021577384726501878  0.2643124059505807  1.0000
  H   H36       1.0  0.11203081413858514  0.5215773846817048  0.2356875944561451  1.0000
  H   H37       1.0  0.8898879840409413  0.009608105438916206  0.9093277234672479  1.0000
  H   H38       1.0  0.6101120166723599  0.5096081056895561  0.5906722767498819  1.0000
  H   H39       1.0  0.11011201635771091  0.9903918944714897  0.09067227634315611  1.0000
  H   H40       1.0  0.38988798372629224  0.4903918945162867  0.40932772306052206  1.0000
  H   H41       1.0  0.2615922257245933  0.9965391486954038  0.555768069166952  1.0000
  H   H42       1.0  0.23840777509724678  0.49653914844476393  0.9442319307488356  1.0000
  H   H43       1.0  0.7384077746740588  0.0034608515104389537  0.44423193064345207  1.0000
  H   H44       1.0  0.7615922253014054  0.5034608514656418  0.055768069061568296  1.0000
  H   H45       1.0  0.05335543241307383  0.0286009369934846  0.6067673768054774  1.0000
  H   H46       1.0  0.44664456672925074  0.5286009372441245  0.8932326231180333  1.0000
  H   H47       1.0  0.9466445679855783  0.9713990629169212  0.39323262300492656  1.0000
  H   H48       1.0  0.5533554319898859  0.4713990629617183  0.10676737670009373  1.0000
  H   H49       1.0  0.10128004938021704  0.9813278144019313  0.6835353023251607  1.0000
  H   H50       1.0  0.39871994976210756  0.48132781444672834  0.8164646975983502  1.0000
  H   H51       1.0  0.8987199493389196  0.018672185508474517  0.31646469749296635  1.0000
  H   H52       1.0  0.6012800506365447  0.5186721854636774  0.1835353022120539  1.0000
  H   H53       1.0  0.9447526660398019  0.2762049093857408  0.47296460218548253  1.0000
  H   H54       1.0  0.5552473341663082  0.7762049096363808  0.02703539852258531  1.0000
  H   H55       1.0  0.05524733435885026  0.7237950905246651  0.5270353976249215  1.0000
  H   H56       1.0  0.4447526664629899  0.2237950905694621  0.9729646022908663  1.0000
  H   H57       1.0  0.21680463954692406  0.3312208574333491  0.4742526807412728  1.0000
  H   H58       1.0  0.28319536076772495  0.831220857388552  0.025747319665452975  1.0000
  H   H59       1.0  0.783195360851728  0.6687791424770567  0.5257473190691312  1.0000
  H   H60       1.0  0.7168046398615731  0.16877914252185378  0.9742526811479986  1.0000
  H   H61       1.0  0.48918079001997505  0.27383132422878814  0.1446894497107119  1.0000
  H   H62       1.0  0.010819210294674026  0.773831324183991  0.35531055069601386  1.0000
  H   H63       1.0  0.5108192103786772  0.7261686756816177  0.855310550099692  1.0000
  H   H64       1.0  0.9891807901039781  0.22616867572641478  0.6446894491143901  1.0000
  H   H65       1.0  0.2112530532383758  0.21901176260769056  0.16251859300755997  1.0000
  H   H66       1.0  0.2887469470762732  0.7190117625628935  0.33748140739916577  1.0000
  H   H67       1.0  0.7887469471602763  0.7809882373027153  0.8374814068028441  1.0000
  H   H68       1.0  0.7112530533223789  0.2809882373475123  0.6625185924112381  1.0000
  H   H69       1.0  0.6419325905430067  0.33715043781330345  0.21978084770289721  1.0000
  H   H70       1.0  0.8580674096631035  0.8371504377685064  0.28021915300517064  1.0000
  H   H71       1.0  0.3580674100862913  0.6628495620971023  0.7802191531105542  1.0000
  H   H72       1.0  0.1419325909661946  0.16284956214189944  0.7197808478082809  1.0000
  H   H73       1.0  0.6523093524560127  0.3434683497418894  0.3972197397663558  1.0000
  H   H74       1.0  0.8476906475194516  0.8434683499925293  0.10278025993866452  1.0000
  H   H75       1.0  0.34769064794263943  0.6565316501685164  0.6027802600440483  1.0000
  H   H76       1.0  0.15230935119968508  0.15653165021331353  0.8972197398794624  1.0000
  H   H77       1.0  0.4460281739490035  0.36894686451024555  0.2874901641011324  1.0000
  H   H78       1.0  0.05397182636564549  0.8689468644654484  0.2125098363055934  1.0000
  H   H79       1.0  0.5539718264496486  0.6310531354001602  0.7125098357092716  1.0000
  H   H80       1.0  0.9460281742636526  0.13105313544495736  0.7874901645078581  1.0000
  C   C1        1.0  0.393191115484857  0.14049681187742932  0.204202437567361  1.0000
  C   C2        1.0  0.10680888459914613  0.6404968118326323  0.29579756183631717  1.0000
  C   C3        1.0  0.606808884913795  0.8595031880329765  0.7957975622430429  1.0000
  C   C4        1.0  0.893191115799506  0.35950318807777354  0.7042024379740868  1.0000
  C   C5        1.0  0.3186522174033352  0.09566859745527917  0.3641070884162643  1.0000
  C   C6        1.0  0.1813477826806679  0.5956685974104821  0.1358929109874139  1.0000
  C   C7        1.0  0.6813477829953168  0.9043314027505637  0.6358929113941397  1.0000
  C   C8        1.0  0.8186522177179844  0.4043314024999238  0.8641070888229901  1.0000
  C   C9        1.0  0.5090607458424045  0.12349120863207622  0.4272663065280928  1.0000
  C   C10       1.0  0.9909392541330597  0.6234912085872791  0.07273369317692752  1.0000
  C   C11       1.0  0.4909392545562476  0.8765087912783296  0.5727336932823112  1.0000
  C   C12       1.0  0.009060746265592494  0.3765087913231267  0.9272663066334764  1.0000
  C   C13       1.0  0.42262488086803573  0.1474749513417116  0.5396879478763226  1.0000
  C   C14       1.0  0.07737511995380429  0.6474749512969146  0.960312052039465  1.0000
  C   C15       1.0  0.5773751195306164  0.8525250488641312  0.46031205193408137  1.0000
  C   C16       1.0  0.9226248804448479  0.3525250489089283  0.03968794777093887  1.0000
  C   C17       1.0  0.7222941550405926  0.10002400294719994  0.47849830766112894  1.0000
  C   C18       1.0  0.7777058451655176  0.6000240029024028  0.02150169304693898  1.0000
  C   C19       1.0  0.2777058455887054  0.8999759972586429  0.5215016931523226  1.0000
  C   C20       1.0  0.22229415378426498  0.39997599730343997  0.9784983077742356  1.0000
  C   C21       1.0  0.48508674272993985  0.07604238531589069  0.9047908802986813  1.0000
  C   C22       1.0  0.014913256412384661  0.5760423852710935  0.5952091196248294  1.0000
  C   C23       1.0  0.5149132578993582  0.9239576145945151  0.09520912051477028  1.0000
  C   C24       1.0  0.985086742306752  0.4239576146393122  0.40479088019329756  1.0000
  C   C25       1.0  0.3208966469681032  0.060367782765571545  0.8081860805707979  1.0000
  C   C26       1.0  0.1791033538537369  0.5603677827207745  0.6918139193449898  1.0000
  C   C27       1.0  0.6791033534305488  0.9396322171448344  0.19181391923960614  1.0000
  C   C28       1.0  0.8208966465449153  0.43963221718963136  0.3081860804654141  1.0000
  C   C29       1.0  0.35847009433834326  0.02452195653780692  0.7449869278993831  1.0000
  C   C30       1.0  0.1415299048039814  0.5245219564930098  0.7550130720241276  1.0000
  C   C31       1.0  0.6415299043807934  0.9754780436680359  0.25501307191874395  1.0000
  C   C32       1.0  0.8584700955946708  0.475478043417396  0.24498692778627634  1.0000
  C   C33       1.0  0.5679675139882758  0.005876368040508425  0.7828323166958553  1.0000
  C   C34       1.0  0.9320324864943794  0.5058763679957113  0.7171676825182269  1.0000
  C   C35       1.0  0.4320324864103763  0.9941236321653345  0.2171676831145487  1.0000
  C   C36       1.0  0.06796751390427268  0.49412363221013156  0.28283231729217706  1.0000
  C   C37       1.0  0.7249071838347283  0.023179758780551254  0.8792441036257087  1.0000
  C   C38       1.0  0.7750928168785729  0.5231797590311912  0.6207558965914212  1.0000
  C   C39       1.0  0.2750928165639239  0.9768202411298547  0.12075589618469541  1.0000
  C   C40       1.0  0.2249071837507251  0.4768202411746516  0.37924410422203036  1.0000
  C   C41       1.0  0.18358813335948382  0.006914068337977293  0.6424539409887858  1.0000
  C   C42       1.0  0.31641186578284075  0.5069140682931802  0.8575460589347249  1.0000
  C   C43       1.0  0.8164118653596528  0.9930859315724285  0.3575460588293412  1.0000
  C   C44       1.0  0.6835881346158115  0.4930859316172256  0.1424539408756791  1.0000
  C   C45       1.0  0.07030853111584488  0.2764329007759796  0.40297228454144235  1.0000
  C   C46       1.0  0.42969146919880413  0.7764329007311825  0.09702771586528337  1.0000
  C   C47       1.0  0.9296914695134532  0.7235670994298632  0.5970277162720091  1.0000
  C   C48       1.0  0.570308531199848  0.22356709917922332  0.9029722839451206  1.0000
  C   C49       1.0  0.22240404883663906  0.3074035281804731  0.4017866564563721  1.0000
  C   C50       1.0  0.277595951247364  0.8074035281356761  0.098213342947306  1.0000
  C   C51       1.0  0.7775959515620131  0.6925964717299328  0.5982133433540319  1.0000
  C   C52       1.0  0.7224040491512881  0.19259647177472983  0.9017866568630978  1.0000
  C   C53       1.0  0.37723427842139473  0.30752199280334175  0.3075088278616407  1.0000
  C   C54       1.0  0.12276572189325428  0.8075219927585446  0.1924911725450851  1.0000
  C   C55       1.0  0.6227657219772574  0.6924780071070641  0.6924911719487632  1.0000
  C   C56       1.0  0.8772342770565282  0.19247800715186117  0.8075088282760896  1.0000
  C   C57       1.0  0.37222444333544413  0.27533880037385705  0.21959272042104816  1.0000
  C   C58       1.0  0.1277755569792048  0.77533880032906  0.2804072799856776  1.0000
  C   C59       1.0  0.627775557063208  0.7246611998319857  0.7804072793893557  1.0000
  C   C60       1.0  0.8722244434194474  0.22466119958134584  0.7195927198247264  1.0000
  C   C61       1.0  0.21738940884457933  0.24494859115443796  0.22756404312691286  1.0000
  C   C62       1.0  0.2826105914700697  0.744948591109641  0.2724359572798129  1.0000
  C   C63       1.0  0.7826105915540729  0.7550514087559679  0.7724359566834911  1.0000
  C   C64       1.0  0.7173894089285824  0.25505140880076493  0.727564042530591  1.0000
  C   C65       1.0  0.5395769658681926  0.3409370499751445  0.30184948544369433  1.0000
  C   C66       1.0  0.9604230343379176  0.8409370499303475  0.19815051526437358  1.0000
  C   C67       1.0  0.4604230347611055  0.6590629499352614  0.6981505153697573  1.0000
  C   C68       1.0  0.03957696629138044  0.15906294998005838  0.801849485549078  1.0000
  N   N1        1.0  0.25605871468567565  0.10822279768322478  0.23578818705616353  1.0000
  N   N2        1.0  0.2439412853983275  0.6082227976384277  0.2642118123475146  1.0000
  N   N3        1.0  0.7439412857129766  0.891777202522618  0.7642118127542404  1.0000
  N   N4        1.0  0.7560587150003246  0.39177720256741516  0.7357881874628893  1.0000
  N   N5        1.0  0.5417570724414883  0.1489442806616073  0.31356319761281787  1.0000
  N   N6        1.0  0.9582429275339759  0.6489442806168102  0.18643680209220237  1.0000
  N   N7        1.0  0.4582429279571638  0.8510557195442355  0.686436802197586  1.0000
  N   N8        1.0  0.041757072864676205  0.35105571929359564  0.8135631977182015  1.0000
  N   N9        1.0  0.6839781524232086  0.057511557843254735  0.9395693291542002  1.0000
  N   N10       1.0  0.8160218466105771  0.5575115577984576  0.5604306710706525  1.0000
  N   N11       1.0  0.316021846526574  0.9424884420671511  0.060430671666974314  1.0000
  N   N12       1.0  0.18397815378807503  0.4424884421119482  0.43956932873975146  1.0000
  N   N13       1.0  0.06870068329769588  0.2457655034065517  0.31747113191072157  1.0000
  N   N14       1.0  0.4312993153374376  0.7457655033617546  0.18252886850372727  1.0000
  N   N15       1.0  0.9312993156520867  0.7542344965038541  0.6825288689104531  1.0000
  N   N16       1.0  0.568700683381699  0.25423449654865116  0.8174711313143997  1.0000
  O   O1        1.0  0.3738536753413815  0.15698871252058152  0.09268137589367065  1.0000
  O   O2        1.0  0.12614632474262163  0.6569887124757844  0.4073186235100076  1.0000
  O   O3        1.0  0.6261463250572706  0.8430112873898242  0.9073186239167332  1.0000
  O   O4        1.0  0.8738536756560306  0.3430112874346214  0.5926813763003964  1.0000
  O   O5        1.0  0.24001120088496122  0.06752940515004281  0.42104188942789256  1.0000
  O   O6        1.0  0.2599887994296878  0.5675294051052457  0.07895811097883322  1.0000
  O   O7        1.0  0.7599887995136909  0.9324705947603631  0.5789581103825114  1.0000
  O   O8        1.0  0.7400111995200946  0.43247059480516015  0.9210418898423414  1.0000
  I   I1        1.0  0.9782282027396425  0.08462880550612205  0.0986585124656402  1.0000
  I   I2        1.0  0.5217717974664675  0.5846288057567619  0.40134148824242766  1.0000
  I   I3        1.0  0.021771797889655442  0.9153711944042837  0.9013414883478114  1.0000
  I   I4        1.0  0.47822820125266907  0.4153711944490809  0.5986585115756993  1.0000
  I   I5        1.0  0.7937530237581875  0.19445635432948158  0.3160617249747555  1.0000
  I   I6        1.0  0.7062469762172767  0.6944563542846844  0.18393827473026483  1.0000
  I   I7        1.0  0.2062469766404646  0.8055436455809243  0.6839382748356484  1.0000
  I   I8        1.0  0.29375302250186  0.30554364562572134  0.8160617250878622  1.0000
