data_image0
_chemical_formula_structural       H64C60N16O8I8
_chemical_formula_sum              "H64 C60 N16 O8 I8"
_cell_length_a       5.855301158313734
_cell_length_b       31.21143940231301
_cell_length_c       9.81966075662902
_cell_angle_alpha    90.0
_cell_angle_beta     97.37079451747475
_cell_angle_gamma    90.0

_space_group_name_H-M_alt    "P 1"
_space_group_IT_number       1

loop_
  _space_group_symop_operation_xyz
  'x, y, z'

loop_
  _atom_site_type_symbol
  _atom_site_label
  _atom_site_symmetry_multiplicity
  _atom_site_fract_x
  _atom_site_fract_y
  _atom_site_fract_z
  _atom_site_occupancy
  H   H1        1.0  0.29731281022482986  0.3787534883483758  0.41458218020670473  1.0000
  H   H2        1.0  0.2973128114135471  0.6212465115775163  0.9145821800922515  1.0000
  H   H3        1.0  0.797312810606431  0.8787534883113219  0.414582180084552  1.0000
  H   H4        1.0  0.7973128100891784  0.12124651161457024  0.9145821799785855  1.0000
  H   H5        1.0  0.47562570417984307  0.4235051443676906  0.385762079966265  1.0000
  H   H6        1.0  0.47562570536856036  0.576494855878597  0.8857620798518119  1.0000
  H   H7        1.0  0.9756257045614442  0.9235051443306368  0.38576207984411215  1.0000
  H   H8        1.0  0.9756257040441916  0.0764948559156508  0.8857620797381457  1.0000
  H   H9        1.0  0.35112269916184957  0.4189613930151179  0.5421108056162725  1.0000
  H   H10       1.0  0.3511226996791022  0.5810386072311695  0.042110805722238895  1.0000
  H   H11       1.0  0.8511226995434508  0.918961392978064  0.5421108054941196  1.0000
  H   H12       1.0  0.8511227000607032  0.08103860694782813  0.04211080560008609  1.0000
  H   H13       1.0  0.8853548156771082  0.3295178151648405  0.46453920518751285  1.0000
  H   H14       1.0  0.8853548168658254  0.670482185081447  0.9645392050730596  1.0000
  H   H15       1.0  0.3853548170014767  0.8295178151277867  0.4645392053011788  1.0000
  H   H16       1.0  0.38535481648422415  0.1704821851185009  0.9645392051952123  1.0000
  H   H17       1.0  0.7829714170532167  0.36748246987769523  0.33428074215009435  1.0000
  H   H18       1.0  0.782971416535964  0.6325175303685924  0.8342807420441278  1.0000
  H   H19       1.0  0.28297141667161557  0.8674824698406413  0.33428074227224713  1.0000
  H   H20       1.0  0.2829714178603328  0.1325175300852509  0.834280742157794  1.0000
  H   H21       1.0  0.6003768593909398  0.3248625011907842  0.3756142508324468  1.0000
  H   H22       1.0  0.6003768588736872  0.6751374987351079  0.8756142507264802  1.0000
  H   H23       1.0  0.1003768590093387  0.8248625014741257  0.3756142509545996  1.0000
  H   H24       1.0  0.10037686019805596  0.1751374987721619  0.8756142508401465  1.0000
  H   H25       1.0  0.2469577666266481  0.5029062263894427  0.07622663347475638  1.0000
  H   H26       1.0  0.24695776781536535  0.49709377353644946  0.5762266333603032  1.0000
  H   H27       1.0  0.7469577670082491  0.002906226426496622  0.07622663335260357  1.0000
  H   H28       1.0  0.7469577664909967  0.9970937734993955  0.5762266332466371  1.0000
  H   H29       1.0  0.535663064461037  0.531610833327039  0.2629716867926501  1.0000
  H   H30       1.0  0.5356630639437843  0.46838916659885316  0.7629716866866837  1.0000
  H   H31       1.0  0.0356630640794358  0.0316108333640929  0.2629716869148029  1.0000
  H   H32       1.0  0.03566306526815305  0.9683891665617993  0.7629716868003497  1.0000
  H   H33       1.0  0.902725914056164  0.49053828029685104  0.3300965195412747  1.0000
  H   H34       1.0  0.9027259135389113  0.5094617196290412  0.8300965194353083  1.0000
  H   H35       1.0  0.4027259136745628  0.9905382805801924  0.33009651966342757  1.0000
  H   H36       1.0  0.4027259131573102  0.009461719666095084  0.8300965195574611  1.0000
  H   H37       1.0  0.6663849092245379  0.39882142696301026  0.01327970619710232  1.0000
  H   H38       1.0  0.6663849087072853  0.6011785732832773  0.5132797060911358  1.0000
  H   H39       1.0  0.16638490860790278  0.8988214269259565  0.013279705292439888  1.0000
  H   H40       1.0  0.16638490832568412  0.10117857332033116  0.5132797062132887  1.0000
  H   H41       1.0  0.9704591098115353  0.4234921830942682  0.1999502268020697  1.0000
  H   H42       1.0  0.9704591110002524  0.5765078168316239  0.6999502266876165  1.0000
  H   H43       1.0  0.4704591111359039  0.9234921830572143  0.19995022691573577  1.0000
  H   H44       1.0  0.47045911061865137  0.07650781686867786  0.6999502268097693  1.0000
  H   H45       1.0  0.851614617767319  0.16241365336147667  0.4709955160505285  1.0000
  H   H46       1.0  0.8516146174851001  0.8375863465644156  0.9709955169713771  1.0000
  H   H47       1.0  0.3516146173857177  0.6624136533244228  0.47099551617268126  1.0000
  H   H48       1.0  0.351614618574435  0.3375863466014694  0.9709955160582281  1.0000
  H   H49       1.0  0.152876856926065  0.21837836032307079  0.48924002172147385  1.0000
  H   H50       1.0  0.15287685640881243  0.7816216396028214  0.9892400216155074  1.0000
  H   H51       1.0  0.6528768573076662  0.7183783602860169  0.48924002159932106  1.0000
  H   H52       1.0  0.6528768567904136  0.2816216396398753  0.9892400214933545  1.0000
  H   H53       1.0  0.8990168489209887  0.2764442456108122  0.8195296258262385  1.0000
  H   H54       1.0  0.8990168494382412  0.7235557543150799  0.3195296259322049  1.0000
  H   H55       1.0  0.3990168502453574  0.7764442455737582  0.8195296259399045  1.0000
  H   H56       1.0  0.3990168490566401  0.2235557543521339  0.31952962605435775  1.0000
  H   H57       1.0  0.5948954352121034  0.2199376129859388  0.8225781372251362  1.0000
  H   H58       1.0  0.5948954337883523  0.7800623869399533  0.3225781363127741  1.0000
  H   H59       1.0  0.09489543459546843  0.7199376132692802  0.8225781363204736  1.0000
  H   H60       1.0  0.09489543340675119  0.2800623869770073  0.3225781364349269  1.0000
  H   H61       1.0  0.5622967010983382  0.1625563914115414  0.6398286780289664  1.0000
  H   H62       1.0  0.5622966999096208  0.8374436085143507  0.13982867814341962  1.0000
  H   H63       1.0  0.06229670071673706  0.6625563913744875  0.6398286781511192  1.0000
  H   H64       1.0  0.06229670123398964  0.3374436085514047  0.13982867825708567  1.0000
  C   C1        1.0  0.42818370517145604  0.40105911805760375  0.46348482029464455  1.0000
  C   C2        1.0  0.42818370465420347  0.5989408818682884  0.963484820188678  1.0000
  C   C3        1.0  0.9281837057880911  0.9010591183409452  0.4634848211993069  1.0000
  C   C4        1.0  0.9281837052708386  0.09894088190534232  0.9634848210933405  1.0000
  C   C5        1.0  0.640303908782787  0.37596400854009926  0.5255609201177248  1.0000
  C   C6        1.0  0.6403039093000394  0.6240359913857929  0.02556092022369125  1.0000
  C   C7        1.0  0.14030390840118578  0.8759640085030453  0.5255609202398775  1.0000
  C   C8        1.0  0.14030390868340445  0.12403599142284683  0.025560919319028815  1.0000
  C   C9        1.0  0.8326442533124928  0.4066996185718784  0.59011662813283  1.0000
  C   C10       1.0  0.8326442538297454  0.5933003813540138  0.09011662823879642  1.0000
  C   C11       1.0  0.3326442546368615  0.90669961885522  0.590116628246496  1.0000
  C   C12       1.0  0.3326442534481442  0.09330038139106764  0.0901166283609492  1.0000
  C   C13       1.0  0.7365107773572979  0.3619586486986174  0.7595381205170747  1.0000
  C   C14       1.0  0.7365107778745503  0.6380413512272748  0.25953812062304116  1.0000
  C   C15       1.0  0.23651077868166656  0.8619586486615635  0.7595381206307408  1.0000
  C   C16       1.0  0.23651077749294933  0.1380413512643287  0.25953812074519395  1.0000
  C   C17       1.0  0.7341958067373565  0.3475636134614183  0.41797220776605043  1.0000
  C   C18       1.0  0.7341958064551379  0.6524363864644739  0.9179722086868993  1.0000
  C   C19       1.0  0.23419580635575535  0.8475636134243644  0.4179722078882033  1.0000
  C   C20       1.0  0.2341958058385028  0.1524363865015278  0.9179722077822368  1.0000
  C   C21       1.0  0.40991084240632736  0.486368240000973  0.10704510109123673  1.0000
  C   C22       1.0  0.40991084188907473  0.5136317599249193  0.6070451009852702  1.0000
  C   C23       1.0  0.9099108427879286  0.9863682399639191  0.10704510096908394  1.0000
  C   C24       1.0  0.909910842270676  0.013631759961973095  0.6070451008631175  1.0000
  C   C25       1.0  0.5716221361992501  0.502023502602024  0.21118450759847116  1.0000
  C   C26       1.0  0.5716221356819974  0.49797649732386823  0.7111845074925046  1.0000
  C   C27       1.0  0.07162213581764884  0.0020235026390778895  0.21118450772062392  1.0000
  C   C28       1.0  0.07162213530039627  0.9979764972868143  0.7111845076146575  1.0000
  C   C29       1.0  0.7756561983447557  0.47935522572827083  0.24724014361007418  1.0000
  C   C30       1.0  0.7756561995334731  0.5206447741976213  0.747240143495621  1.0000
  C   C31       1.0  0.27565619966912447  0.9793552256912169  0.24724014372374026  1.0000
  C   C32       1.0  0.2756561991518719  0.020644774234675263  0.7472401436177738  1.0000
  C   C33       1.0  0.6446398128241247  0.4279510562723404  0.07226158552804106  1.0000
  C   C34       1.0  0.6446398140128421  0.5720489436535516  0.572261585413588  1.0000
  C   C35       1.0  0.14463981220748978  0.9279510562352865  0.07226158462337863  1.0000
  C   C36       1.0  0.14463981363124095  0.07204894369060562  0.5722615855357407  1.0000
  C   C37       1.0  0.8126067360259049  0.44192856222381766  0.1758585268237682  1.0000
  C   C38       1.0  0.8126067372146221  0.55807143802247  0.675858526709315  1.0000
  C   C39       1.0  0.31260673564430375  0.9419285621867638  0.17585852694592102  1.0000
  C   C40       1.0  0.31260673683302104  0.05807143805952378  0.6758585268314679  1.0000
  C   C41       1.0  0.8559218936825274  0.18650330588625835  0.5513558000385625  1.0000
  C   C42       1.0  0.8559218941997799  0.8134966940396339  0.05135580014452902  1.0000
  C   C43       1.0  0.3559218933009263  0.6865033058492044  0.5513558001607154  1.0000
  C   C44       1.0  0.35592189381817885  0.31349669407668773  0.05135580026668183  1.0000
  C   C45       1.0  0.023618112094657324  0.21823201398059286  0.5596354849184949  1.0000
  C   C46       1.0  0.02361811261190989  0.7817679859452994  0.05963548502446133  1.0000
  C   C47       1.0  0.5236181127112923  0.718232013943539  0.5596354858231574  1.0000
  C   C48       1.0  0.523618112993511  0.28176798598235325  0.05963548490230853  1.0000
  C   C49       1.0  0.8838180665441616  0.24990348953345518  0.746607730795298  1.0000
  C   C50       1.0  0.8838180670614141  0.7500965107128323  0.24660773090126434  1.0000
  C   C51       1.0  0.3838180661625604  0.7499034894964013  0.7466077309174506  1.0000
  C   C52       1.0  0.38381806667981305  0.25009651074988626  0.24660773102341715  1.0000
  C   C53       1.0  0.7138110430643119  0.21863967316721328  0.7461634770581175  1.0000
  C   C54       1.0  0.7138110435815644  0.7813603270790742  0.24616347716408382  1.0000
  C   C55       1.0  0.2138110443886805  0.7186396731301594  0.7461634771717834  1.0000
  C   C56       1.0  0.21381104319996327  0.2813603267957328  0.24616347728623664  1.0000
  C   C57       1.0  0.6976654897705049  0.18671337181482664  0.646016863653101  1.0000
  C   C58       1.0  0.6976654900527235  0.8132866281110656  0.14601686273225217  1.0000
  C   C59       1.0  0.1976654891538699  0.6867133720981681  0.6460168627484385  1.0000
  C   C60       1.0  0.19766548967112246  0.3132866281481194  0.146016862854405  1.0000
  N   N1        1.0  0.8788709601676812  0.3961432108473573  0.7257418486424988  1.0000
  N   N2        1.0  0.8788709606849339  0.6038567890785348  0.22574184874846528  1.0000
  N   N3        1.0  0.3788709614920499  0.8961432108103035  0.7257418487561649  1.0000
  N   N4        1.0  0.3788709603033326  0.10385678911558875  0.2257418488706181  1.0000
  N   N5        1.0  0.59544516746235  0.3506292292046291  0.6452831056424744  1.0000
  N   N6        1.0  0.5954451679796026  0.6493707707212631  0.14528310574844083  1.0000
  N   N7        1.0  0.09544516708074886  0.8506292291675751  0.6452831057646272  1.0000
  N   N8        1.0  0.09544516759800142  0.149370770758317  0.14528310587059365  1.0000
  N   N9        1.0  0.4472247377296509  0.4499219696019315  0.039873704268655295  1.0000
  N   N10       1.0  0.4472247372123983  0.5500780303239607  0.5398737041626889  1.0000
  N   N11       1.0  0.9472247381112521  0.9499219695648775  0.03987370414650249  1.0000
  N   N12       1.0  0.9472247375939994  0.05007803036101465  0.5398737040405361  1.0000
  N   N13       1.0  0.03448962486407802  0.24952865773383193  0.6543703159100323  1.0000
  N   N14       1.0  0.03448962367536076  0.7504713421920601  0.15437031602448545  1.0000
  N   N15       1.0  0.5344896237747432  0.749528657696778  0.6543703168231814  1.0000
  N   N16       1.0  0.5344896240569619  0.25047134222911416  0.15437031590233266  1.0000
  O   O1        1.0  0.9256095050191415  0.43480513362656037  0.5282205210751891  1.0000
  O   O2        1.0  0.9256095055363941  0.5651948662993319  0.028220521181155606  1.0000
  O   O3        1.0  0.4256095046375405  0.9348051335895065  0.528220521197342  1.0000
  O   O4        1.0  0.425609505154793  0.06519486633638573  0.028220521303308405  1.0000
  O   O5        1.0  0.7468823194692412  0.34625705180386857  0.8765486753343351  1.0000
  O   O6        1.0  0.7468823197514598  0.6537429484424191  0.3765486744134863  1.0000
  O   O7        1.0  0.24688231885260611  0.8462570517668146  0.8765486744296725  1.0000
  O   O8        1.0  0.24688231936985872  0.1537429484794729  0.37654867453563906  1.0000
  I   I1        1.0  0.15224903514947657  0.4219509430578848  0.871267729979184  1.0000
  I   I2        1.0  0.15224903543169524  0.5780490568680073  0.37126772905833527  1.0000
  I   I3        1.0  0.6522490355310777  0.9219509430208309  0.8712677298570314  1.0000
  I   I4        1.0  0.6522490360483303  0.07804905690506127  0.3712677299629977  1.0000
  I   I5        1.0  0.3266843331770009  0.3042388185818912  0.6504061663178151  1.0000
  I   I6        1.0  0.32668433345921954  0.6957611813440009  0.15040616539696636  1.0000
  I   I7        1.0  0.8266843335586019  0.8042388185448373  0.6504061661956624  1.0000
  I   I8        1.0  0.8266843340758546  0.19576118138105486  0.1504061663016288  1.0000
