data_image0
_chemical_formula_structural       H26C24N6O8I4
_chemical_formula_sum              "H26 C24 N6 O8 I4"
_cell_length_a       5.972022385570084
_cell_length_b       8.001259916914897
_cell_length_c       16.893498707965094
_cell_angle_alpha    94.9910616266641
_cell_angle_beta     99.24437248742994
_cell_angle_gamma    95.46609277065257

_space_group_name_H-M_alt    "P 1"
_space_group_IT_number       1

loop_
  _space_group_symop_operation_xyz
  'x, y, z'

loop_
  _atom_site_type_symbol
  _atom_site_label
  _atom_site_symmetry_multiplicity
  _atom_site_fract_x
  _atom_site_fract_y
  _atom_site_fract_z
  _atom_site_occupancy
  H   H1        1.0  0.9841557043738457  0.5798151406086925  0.14873971131040276  1.0000
  H   H2        1.0  0.015844296178761496  0.420184858924799  0.8512602886293837  1.0000
  H   H3        1.0  0.21426721174457536  0.8026713322736588  0.09192181166876726  1.0000
  H   H4        1.0  0.785732789260587  0.1973286686412113  0.9080781888770042  1.0000
  H   H5        1.0  0.7845788567738247  0.16312259970410203  0.17478465918829367  1.0000
  H   H6        1.0  0.21542114394779996  0.8368774010855252  0.8252153407544789  1.0000
  H   H7        1.0  0.5743297604061556  0.9295555085087593  0.22914017846850376  1.0000
  H   H8        1.0  0.4256702384715949  0.07044449102976043  0.7708598214689668  1.0000
  H   H9        1.0  0.35212221300118557  0.2858957774239713  0.9837227758216877  1.0000
  H   H10       1.0  0.6478777875514216  0.7141042221095201  0.01627722411809864  1.0000
  H   H11       1.0  0.5985674975553785  0.18052034940067446  0.017286513840242483  1.0000
  H   H12       1.0  0.4014325014913894  0.8194796513939812  0.9827134861002145  1.0000
  H   H13       1.0  0.5062488310037996  0.3369920724890255  0.08462518098422722  1.0000
  H   H14       1.0  0.49375116787395085  0.6630079270494942  0.9153748189532434  1.0000
  H   H15       1.0  0.796799263970238  0.24818109495583376  0.3407958870728257  1.0000
  H   H16       1.0  0.2032007350765298  0.7518189058388216  0.6592041128676311  1.0000
  H   H17       1.0  0.8267784724082385  0.34817853376219293  0.441684923624102  1.0000
  H   H18       1.0  0.17322152814436864  0.6518214657712987  0.5583150763156844  1.0000
  H   H19       1.0  0.8312534966071943  0.12651847264808236  0.42465116818145165  1.0000
  H   H20       1.0  0.16874650227055604  0.8734815268904375  0.5753488317560189  1.0000
  H   H21       1.0  0.22298839961138325  0.15772473340585444  0.5200672750140986  1.0000
  H   H22       1.0  0.777011600941224  0.8422752661276373  0.47993272492568806  1.0000
  H   H23       1.0  0.20471165425535628  0.37781746209138706  0.5346837286697792  1.0000
  H   H24       1.0  0.795288346297251  0.6221825374421046  0.4653162712700073  1.0000
  H   H25       1.0  0.44920224062533737  0.30199228413609025  0.5009283410474833  1.0000
  H   H26       1.0  0.5507977584214306  0.6980077166585652  0.49907165889297345  1.0000
  C   C1        1.0  0.9455730879625991  0.7106314840976294  0.15259834675057912  1.0000
  C   C2        1.0  0.05442691091515122  0.2893685154408904  0.8474016531868914  1.0000
  C   C3        1.0  0.07222231876659993  0.835513373199962  0.1208801684693136  1.0000
  C   C4        1.0  0.927777680280168  0.16448662759469357  0.8791198314711433  1.0000
  C   C5        1.0  0.014824143676792146  0.0013632864741854466  0.12745510574545074  1.0000
  C   C6        1.0  0.9851758553699758  0.9986367143204701  0.872544894195006  1.0000
  C   C7        1.0  0.833664487553076  0.03607133291228678  0.16706151597412783  1.0000
  C   C8        1.0  0.16633551299953117  0.9639286666212048  0.8329384839656585  1.0000
  C   C9        1.0  0.7154900759728755  0.9057904915881535  0.19762925521686714  1.0000
  C   C10       1.0  0.2845099245797317  0.09420950794533804  0.8023707447229192  1.0000
  C   C11       1.0  0.13649094388748448  0.14479383165969095  0.09450949028963729  1.0000
  C   C12       1.0  0.8635090568341401  0.8552061691299365  0.9054905096531354  1.0000
  C   C13       1.0  0.45184394881116335  0.23616159971331901  0.03500937918904477  1.0000
  C   C14       1.0  0.5481560503501248  0.7638383999504434  0.9649906213514247  1.0000
  C   C15       1.0  0.21822494704915246  0.43719846536526824  0.3747885901063246  1.0000
  C   C16       1.0  0.7817750519976155  0.5628015354293873  0.6252114098341323  1.0000
  C   C17       1.0  0.3326214106151895  0.2183046294369079  0.3011634694638045  1.0000
  C   C18       1.0  0.6673785884315784  0.7816953713577477  0.6988365304766523  1.0000
  C   C19       1.0  0.1408933375693421  0.2733769352567634  0.4096608149366925  1.0000
  C   C20       1.0  0.8591066613084084  0.7266230642817563  0.5903391850007781  1.0000
  C   C21       1.0  0.881892521036856  0.24800357268129028  0.40327790085031  1.0000
  C   C22       1.0  0.11810747951575115  0.7519964268522015  0.5967220990894765  1.0000
  C   C23       1.0  0.2636073039480166  0.2787497930402688  0.49670382319642636  1.0000
  C   C24       1.0  0.7363926949297339  0.7212502064982509  0.5032961767410441  1.0000
  N   N1        1.0  0.7700892738738642  0.746739356704035  0.18967562950423095  1.0000
  N   N2        1.0  0.22991072684776048  0.2532606440855924  0.8103243704385416  1.0000
  N   N3        1.0  0.3299211906403258  0.39589907278839104  0.31347811603211023  1.0000
  N   N4        1.0  0.6700788099122814  0.6041009267451005  0.6865218839076761  1.0000
  N   N5        1.0  0.22098326924122833  0.14639212464343632  0.3556044248422408  1.0000
  N   N6        1.0  0.7790167313113789  0.8536078748900553  0.6443955750975457  1.0000
  O   O1        1.0  0.07562049407161293  0.2867752933740297  0.09577593146913724  1.0000
  O   O2        1.0  0.9243795064809942  0.713224706159462  0.9042240684706492  1.0000
  O   O3        1.0  0.3164234062260661  0.09927168416160737  0.06192545469003194  1.0000
  O   O4        1.0  0.6835765944955585  0.9007283166280201  0.9380745452527407  1.0000
  O   O5        1.0  0.18135723711091342  0.5793176443373411  0.40246990963964147  1.0000
  O   O6        1.0  0.8186427636107111  0.4206823564522862  0.5975300903031311  1.0000
  O   O7        1.0  0.4233661615049165  0.14852511814111416  0.2483948569022676  1.0000
  O   O8        1.0  0.5766338390476906  0.8514748813923774  0.7516051430375188  1.0000
  I   I1        1.0  0.5453892959805675  0.5583852129617578  0.25179379525244255  1.0000
  I   I2        1.0  0.4546107047410571  0.4416147878278694  0.7482062046903301  1.0000
  I   I3        1.0  0.21328807402449632  0.8917988971843387  0.37103331935313566  1.0000
  I   I4        1.0  0.786711924853254  0.10820110235418105  0.6289666805843349  1.0000
