data_image0
_chemical_formula_structural       H52C68N8O4F4S4Br4
_chemical_formula_sum              "H52 C68 N8 O4 F4 S4 Br4"
_cell_length_a       7.264049748473514
_cell_length_b       12.45100869943007
_cell_length_c       17.51362704389672
_cell_angle_alpha    88.21689190424344
_cell_angle_beta     86.49057630922218
_cell_angle_gamma    83.27401134236746

_space_group_name_H-M_alt    "P 1"
_space_group_IT_number       1

loop_
  _space_group_symop_operation_xyz
  'x, y, z'

loop_
  _atom_site_type_symbol
  _atom_site_label
  _atom_site_symmetry_multiplicity
  _atom_site_fract_x
  _atom_site_fract_y
  _atom_site_fract_z
  _atom_site_occupancy
  H   H1        1.0  0.9902104011747106  0.8621395936449534  0.3493741417958512  1.0000
  H   H2        1.0  0.009789599941255073  0.13786040676291345  0.6506258582197159  1.0000
  H   H3        1.0  0.06732720807077322  0.8773864749789293  0.252779250820097  1.0000
  H   H4        1.0  0.932672791829385  0.1226135246211503  0.7472207491942939  1.0000
  H   H5        1.0  0.5256058949826176  0.32316676544328476  0.2225661833554172  1.0000
  H   H6        1.0  0.4743941049175407  0.6768332341567946  0.7774338166589737  1.0000
  H   H7        1.0  0.49982889788364737  0.4714593590803426  0.1223850844873841  1.0000
  H   H8        1.0  0.5001711032323184  0.5285406413275242  0.877614915528183  1.0000
  H   H9        1.0  0.08699608615398872  0.4137815997050832  0.06851152364757274  1.0000
  H   H10       1.0  0.9130039135860155  0.5862184007038361  0.9314884763623998  1.0000
  H   H11       1.0  0.11388274478086845  0.2646388761806844  0.16683121204438978  1.0000
  H   H12       1.0  0.8861172551192898  0.7353611234193952  0.8331687879700012  1.0000
  H   H13       1.0  0.6249222344020035  0.05863302103318757  0.15986340091554568  1.0000
  H   H14       1.0  0.3750777653380008  0.9413669793757318  0.8401365990944268  1.0000
  H   H15       1.0  0.4241228238125368  0.9455016291921364  0.0961888003614201  1.0000
  H   H16       1.0  0.5758771760876217  0.05449837040794318  0.9038111996529707  1.0000
  H   H17       1.0  0.9117561530622929  0.7704883070303172  0.9853920386250647  1.0000
  H   H18       1.0  0.08824384667771136  0.22951169337860214  0.01460796138490773  1.0000
  H   H19       1.0  0.11188094396825811  0.8781168189368764  0.053880678515827736  1.0000
  H   H20       1.0  0.8881190558669705  0.1218831814853309  0.9461193209219656  1.0000
  H   H21       1.0  0.46517887003621516  0.46007350516776696  0.5704783235496589  1.0000
  H   H22       1.0  0.534821129703789  0.5399264952411525  0.4295216764603138  1.0000
  H   H23       1.0  0.6689644835227377  0.5777697813427074  0.6256977000075984  1.0000
  H   H24       1.0  0.3310355163774206  0.4222302182573722  0.3743023000067926  1.0000
  H   H25       1.0  0.1409581848098132  0.33777146487361276  0.5811511988186214  1.0000
  H   H26       1.0  0.8590418150903453  0.6622285347264667  0.4188488011957696  1.0000
  H   H27       1.0  0.9326627133515879  0.21808351466236361  0.5271380189140445  1.0000
  H   H28       1.0  0.06733728654857042  0.7819164849377158  0.4728619811003463  1.0000
  H   H29       1.0  0.546887456488479  0.13172870630441993  0.6179713901962518  1.0000
  H   H30       1.0  0.45311254341167917  0.8682712932956596  0.3820286098181391  1.0000
  H   H31       1.0  0.5044676770515127  0.0401938630323568  0.7458798633805694  1.0000
  H   H32       1.0  0.4955323226884914  0.9598061373765625  0.2541201366294031  1.0000
  H   H33       1.0  0.8039234931866235  0.7467378426306145  0.6586062804880104  1.0000
  H   H34       1.0  0.19607650671353472  0.253262156969465  0.3413937195263804  1.0000
  H   H35       1.0  0.8441124000083945  0.8377554742732984  0.530942455228173  1.0000
  H   H36       1.0  0.1558875997316097  0.16224452613562115  0.4690575447817996  1.0000
  H   H37       1.0  0.06476678666553659  0.6647772865480505  0.11237402711029743  1.0000
  H   H38       1.0  0.9352332132346218  0.3352227130520291  0.8876259729040935  1.0000
  H   H39       1.0  0.1422907041844912  0.5522069136258361  0.1728138843885026  1.0000
  H   H40       1.0  0.857709295715667  0.4477930859742435  0.8271861156258884  1.0000
  H   H41       1.0  0.27957151729091867  0.5842612413573541  0.08975282295039798  1.0000
  H   H42       1.0  0.7204284826092395  0.41573875824272544  0.9102471770639929  1.0000
  H   H43       1.0  0.5274107321430618  0.6798863635585874  0.3139250402463073  1.0000
  H   H44       1.0  0.4725892677570967  0.3201136360414921  0.6860749597680836  1.0000
  H   H45       1.0  0.5002794205167777  0.789529152517622  0.24591635063338027  1.0000
  H   H46       1.0  0.49972057922322666  0.21047084789129744  0.7540836493765923  1.0000
  H   H47       1.0  0.7985868222688692  0.5921604870781764  0.2302886751688599  1.0000
  H   H48       1.0  0.20141317900725061  0.4078395125208505  0.7697113248511256  1.0000
  H   H49       1.0  0.8397424355648524  0.7218376044152557  0.2607089329138828  1.0000
  H   H50       1.0  0.16025756433530589  0.2781623951848239  0.739291067100508  1.0000
  H   H51       1.0  0.7729955694115539  0.7070227412284472  0.1660973290704168  1.0000
  H   H52       1.0  0.22700443048860441  0.29297725837163224  0.8339026709439742  1.0000
  C   C1        1.0  0.8265608713574981  0.19474164935573485  0.2593097245968093  1.0000
  C   C2        1.0  0.17343912838250602  0.8052583510531846  0.7406902754131633  1.0000
  C   C3        1.0  0.9140712164189797  0.08864439409546365  0.24377660735565118  1.0000
  C   C4        1.0  0.08592878348117854  0.9113556055046159  0.7562233926587397  1.0000
  C   C5        1.0  0.9148904159976967  0.009073443952138705  0.30313428400843323  1.0000
  C   C6        1.0  0.0851095839024615  0.9909265556479409  0.6968657160059576  1.0000
  C   C7        1.0  0.7442220254138713  0.14667392527615725  0.3828036831326193  1.0000
  C   C8        1.0  0.255777974486287  0.8533260743239222  0.6171963168817716  1.0000
  C   C9        1.0  0.6750693220852741  0.1469387879188526  0.4600754534383875  1.0000
  C   C10       1.0  0.3249306778148842  0.853061211681227  0.5399245465760034  1.0000
  C   C11       1.0  0.7293982460999697  0.04024703243989204  0.48944425642310324  1.0000
  C   C12       1.0  0.27060175380018847  0.9597529671601875  0.5105557435912876  1.0000
  C   C13       1.0  0.8196715057503791  0.2823588764497661  0.20008033831480204  1.0000
  C   C14       1.0  0.18032849536558676  0.7176411239581008  0.7999196617007651  1.0000
  C   C15       1.0  0.6478593932480164  0.34262077779819616  0.1883523933065088  1.0000
  C   C16       1.0  0.35214060802810354  0.6573792218008305  0.8116476067134767  1.0000
  C   C17       1.0  0.6322003334458499  0.424961912655226  0.1327860649231494  1.0000
  C   C18       1.0  0.36779966638937867  0.5750380877669814  0.8672139345146439  1.0000
  C   C19       1.0  0.7919250275559858  0.4480228187172392  0.09117048037400932  1.0000
  C   C20       1.0  0.20807497234417244  0.5519771808828403  0.9088295196403816  1.0000
  C   C21       1.0  0.965564646873399  0.39223331508480125  0.10222614440882732  1.0000
  C   C22       1.0  0.034435352866605165  0.6077666853241181  0.8977738556011453  1.0000
  C   C23       1.0  0.9782552367052434  0.3083015617396947  0.156975906230449  1.0000
  C   C24       1.0  0.021744763034760885  0.6916984386692246  0.8430240937795236  1.0000
  C   C25       1.0  0.8811179220555223  0.9740269692165728  0.11276292420296806  1.0000
  C   C26       1.0  0.11888207784463595  0.025973030383506675  0.8872370758114227  1.0000
  C   C27       1.0  0.6878004925593393  0.9933223418264778  0.12365137115237432  1.0000
  C   C28       1.0  0.312199507340819  0.006677657773601542  0.8763486288620166  1.0000
  C   C29       1.0  0.5743923542311254  0.9308509830709973  0.08678821121508268  1.0000
  C   C30       1.0  0.4256076455088787  0.06914901733792224  0.9132117887948898  1.0000
  C   C31       1.0  0.6564516053205649  0.8508002584210005  0.03746872266560754  1.0000
  C   C32       1.0  0.34354839457959335  0.149199741179079  0.9625312773487833  1.0000
  C   C33       1.0  0.8489645323534812  0.8324624483390726  0.02444115149594005  1.0000
  C   C34       1.0  0.15103546738652285  0.16753755206984686  0.9755588485140325  1.0000
  C   C35       1.0  0.9614394414150412  0.89372289400505  0.06268757535213776  1.0000
  C   C36       1.0  0.03856055970092481  0.1062771064028168  0.9373124246634293  1.0000
  C   C37       1.0  0.6868608931815794  0.3314917173021686  0.543797299517202  1.0000
  C   C38       1.0  0.3131391065584248  0.6685082831067509  0.4562027004927705  1.0000
  C   C39       1.0  0.6128147889679776  0.4321524929128095  0.5732372935296284  1.0000
  C   C40       1.0  0.38718521214798823  0.5678475074950572  0.42676270648593884  1.0000
  C   C41       1.0  0.7280531434596159  0.4990331198107063  0.6045620816152985  1.0000
  C   C42       1.0  0.2719468562803884  0.500966880598213  0.39543791839467407  1.0000
  C   C43       1.0  0.918093486212587  0.46521144173630075  0.6063979205759106  1.0000
  C   C44       1.0  0.08190651352741722  0.5347885586726185  0.39360207943406206  1.0000
  C   C45       1.0  0.9925718213159778  0.36385752540655386  0.579750175041165  1.0000
  C   C46       1.0  0.007428178424026383  0.6361424750023655  0.42024982496880764  1.0000
  C   C47       1.0  0.8761226719434064  0.29684775733469004  0.5490751725033745  1.0000
  C   C48       1.0  0.12387732795675185  0.7031522422653894  0.4509248275110164  1.0000
  C   C49       1.0  0.7000294395464646  0.9910503548420352  0.5656308673139968  1.0000
  C   C50       1.0  0.2999705601935397  0.0089496455668843  0.43436913269597577  1.0000
  C   C51       1.0  0.6034529963348  0.047673078762586286  0.6265663837794619  1.0000
  C   C52       1.0  0.3965470035653582  0.9523269208374934  0.373433616234929  1.0000
  C   C53       1.0  0.5778458865194446  0.9970946835306213  0.6979421852785302  1.0000
  C   C54       1.0  0.4221541133807137  0.002905316069458261  0.3020578147358606  1.0000
  C   C55       1.0  0.6501892557452867  0.8897682145268608  0.7073663068798204  1.0000
  C   C56       1.0  0.34981074415487157  0.11023178507321871  0.2926336931345705  1.0000
  C   C57       1.0  0.746991301879499  0.8305624916753026  0.648864162264845  1.0000
  C   C58       1.0  0.25300869923646685  0.16943750873256413  0.35113583775072205  1.0000
  C   C59       1.0  0.7707577866531878  0.8821304336199137  0.5781499372703817  1.0000
  C   C60       1.0  0.2292422130868164  0.11786956678900565  0.4218500627395909  1.0000
  C   C61       1.0  0.283369831638348  0.6922946259350067  0.18243547621803405  1.0000
  C   C62       1.0  0.7166301682618104  0.30770537366507295  0.8175645237963568  1.0000
  C   C63       1.0  0.18609510791987585  0.6190673606718382  0.13641232955017804  1.0000
  C   C64       1.0  0.8139048918201284  0.3809326397370812  0.8635876704597946  1.0000
  C   C65       1.0  0.5521548446834014  0.7039417698862142  0.2536330877895126  1.0000
  C   C66       1.0  0.44784515505660283  0.29605823052270536  0.7463669122204599  1.0000
  C   C67       1.0  0.7526908393766424  0.6790968133496168  0.22571085639709876  1.0000
  C   C68       1.0  0.2473091603633618  0.3209031870593026  0.7742891436128738  1.0000
  N   N1        1.0  0.7410462906614764  0.2228495058087722  0.327144689032982  1.0000
  N   N2        1.0  0.2589537090785277  0.7771504946001472  0.6728553109769907  1.0000
  N   N3        1.0  0.9856010575643985  0.9056656064491592  0.2993052732016297  1.0000
  N   N4        1.0  0.014398942175605733  0.09433439395976022  0.7006947268083429  1.0000
  N   N5        1.0  0.8306185899235836  0.04227608473803124  0.37180055289033864  1.0000
  N   N6        1.0  0.16938141119238218  0.9577239156698355  0.6281994471252285  1.0000
  N   N7        1.0  0.8236178040609026  0.9772940133957845  0.4350889655443614  1.0000
  N   N8        1.0  0.17638219567910166  0.0227059870131349  0.5649110344656113  1.0000
  O   O1        1.0  0.43998687502774997  0.6409633532855081  0.20972537465803529  1.0000
  O   O2        1.0  0.5600131247122541  0.3590366471234113  0.7902746253519373  1.0000
  O   O3        1.0  0.22850961284805918  0.7878758424027097  0.19399729958316825  1.0000
  O   O4        1.0  0.7714903868919449  0.2121241580062098  0.8060027004268042  1.0000
  F   F1        1.0  0.7765626796254674  0.5306792369949421  0.037509636797435054  1.0000
  F   F2        1.0  0.22343732011453674  0.46932076341397727  0.9624903632125376  1.0000
  F   F3        1.0  0.627058840605291  0.8398042676332107  0.7777012829988013  1.0000
  F   F4        1.0  0.3729411592948672  0.1601957319668688  0.22229871701558956  1.0000
  S   S1        1.0  0.03243342772791724  0.05254735899156791  0.1558230804173413  1.0000
  S   S2        1.0  0.9675665720120868  0.9474526414173514  0.8441769195926313  1.0000
  S   S3        1.0  0.5329984796776078  0.2561518313649282  0.49950018936255514  1.0000
  S   S4        1.0  0.4670015200623964  0.7438481690439912  0.5004998106474174  1.0000
  Br  Br1       1.0  0.5044767547615155  0.7656004675532322  0.9852259657772617  1.0000
  Br  Br2       1.0  0.49552324513864277  0.23439953204684733  0.014774034237128999  1.0000
  Br  Br3       1.0  0.07831169158817995  0.5612761201415509  0.6421988425960099  1.0000
  Br  Br4       1.0  0.92168830968794  0.438723879457476  0.35780115742397567  1.0000
