data_image0
_chemical_formula_structural       H82C64N4P4
_chemical_formula_sum              "H82 C64 N4 P4"
_cell_length_a       8.572877914185007
_cell_length_b       12.730080308281027
_cell_length_c       14.750923000326223
_cell_angle_alpha    65.72973917569803
_cell_angle_beta     80.83100539258062
_cell_angle_gamma    74.63711668896846

_space_group_name_H-M_alt    "P 1"
_space_group_IT_number       1

loop_
  _space_group_symop_operation_xyz
  'x, y, z'

loop_
  _atom_site_type_symbol
  _atom_site_label
  _atom_site_symmetry_multiplicity
  _atom_site_fract_x
  _atom_site_fract_y
  _atom_site_fract_z
  _atom_site_occupancy
  H   H1        1.0  0.6252997479693526  0.6157886122975021  0.3343403246469536  1.0000
  H   H2        1.0  0.37470025165004667  0.3842113877474452  0.6656596757449038  1.0000
  H   H3        1.0  0.7207863438950585  0.5817052614077689  0.23006912175544722  1.0000
  H   H4        1.0  0.27921365697361017  0.4182947389714672  0.7699308778994494  1.0000
  H   H5        1.0  0.9293037545658986  0.7160332257033922  0.12009622013759338  1.0000
  H   H6        1.0  0.07069624505350067  0.2839667743415551  0.8799037802542641  1.0000
  H   H7        1.0  0.021591140775149294  0.5925994574932117  0.22307034277557602  1.0000
  H   H8        1.0  0.97840885884425  0.4074005425517355  0.7769296576162815  1.0000
  H   H9        1.0  0.3333725307536577  0.6900547490893731  0.3032350389926024  1.0000
  H   H10       1.0  0.6666274688657416  0.3099452509555743  0.696764961399255  1.0000
  H   H11       1.0  0.24795887071342895  0.5744623579089172  0.30898063754345295  1.0000
  H   H12       1.0  0.7520411289891832  0.425537642474921  0.6910193621035752  1.0000
  H   H13       1.0  0.11132801934717185  0.7394883081793375  0.4197946490900585  1.0000
  H   H14       1.0  0.8886719806741659  0.2605116913884086  0.5802053505601228  1.0000
  H   H15       1.0  0.010250922609765649  0.6378336713450199  0.41530401054075955  1.0000
  H   H16       1.0  0.9897490770096337  0.3621663286999275  0.5846959898510977  1.0000
  H   H17       1.0  0.35058119813243244  0.5699960615743366  0.4918685520808091  1.0000
  H   H18       1.0  0.6494188018056924  0.43000393765451866  0.5081314483142017  1.0000
  H   H19       1.0  0.2409429630768905  0.470681113162166  0.48996863904701254  1.0000
  H   H20       1.0  0.7590570366257215  0.5293188872216723  0.5100313606000154  1.0000
  H   H21       1.0  0.5848228542064675  0.231835597803019  0.2832866524297876  1.0000
  H   H22       1.0  0.4151771454129317  0.7681644022419285  0.7167133479620696  1.0000
  H   H23       1.0  0.0993693909336241  0.10627077934800927  0.30688214050801677  1.0000
  H   H24       1.0  0.900630608768988  0.8937292210358291  0.6931178591390112  1.0000
  H   H25       1.0  0.5234945558411884  0.4912046731537363  0.2734638760507185  1.0000
  H   H26       1.0  0.4765054438614237  0.508795327230102  0.7265361235963096  1.0000
  H   H27       1.0  0.44200015715323254  0.3668070540079352  0.34893696990178164  1.0000
  H   H28       1.0  0.5579998424661666  0.6331929460370121  0.6510630304900757  1.0000
  H   H29       1.0  0.5324063194136727  0.43439715707791215  0.4040923167388047  1.0000
  H   H30       1.0  0.46759368060766493  0.5656028424898341  0.5959076829113766  1.0000
  H   H31       1.0  0.9370249668614643  0.9899614897459793  0.27325643169702646  1.0000
  H   H32       1.0  0.06297503400720435  0.010038510633256925  0.7267435679578702  1.0000
  H   H33       1.0  0.8474428413780325  0.10671016889842609  0.16673850026615195  1.0000
  H   H34       1.0  0.15255715832457956  0.8932898314854122  0.833261499380876  1.0000
  H   H35       1.0  0.7231182345653199  0.03943422079602082  0.2709781570202492  1.0000
  H   H36       1.0  0.2768817651372921  0.9605657795878176  0.7290218426267788  1.0000
  H   H37       1.0  0.15731713965441418  0.2654750142708702  0.4387497060108073  1.0000
  H   H38       1.0  0.842682860048198  0.734524986112968  0.5612502936362206  1.0000
  H   H39       1.0  0.24913752799938046  0.1848241211722395  0.3623245707922144  1.0000
  H   H40       1.0  0.7508624716200188  0.8151758788727079  0.6376754295996429  1.0000
  H   H41       1.0  0.19565629852231367  0.3421297709072895  0.31068636989577236  1.0000
  H   H42       1.0  0.8043437023463551  0.6578702294719468  0.689313629759124  1.0000
  H   H43       1.0  0.6394520506469432  0.8147256047373703  0.16247769594964095  1.0000
  H   H44       1.0  0.360547949055669  0.1852743956464679  0.837522303697387  1.0000
  H   H45       1.0  0.7773757072481462  0.8780933774031906  0.19178253480601198  1.0000
  H   H46       1.0  0.22262429245446605  0.12190662298064783  0.808217464841016  1.0000
  H   H47       1.0  0.18902157928976582  0.9219824372045119  0.32703974946931397  1.0000
  H   H48       1.0  0.8109784203296335  0.07801756284043536  0.6729602509225434  1.0000
  H   H49       1.0  0.25830132412116313  0.9160606918127862  0.4885774746435434  1.0000
  H   H50       1.0  0.741698675816962  0.08393930741606913  0.5114225257514672  1.0000
  H   H51       1.0  0.5523959373596495  0.8567869839568842  0.5266467666090019  1.0000
  H   H52       1.0  0.44760406225974986  0.1432130160880631  0.4733532337828556  1.0000
  H   H53       1.0  0.7613718518329717  0.8030138040020603  0.4025831776686074  1.0000
  H   H54       1.0  0.23862814786964048  0.19698619638177794  0.5974168219784206  1.0000
  H   H55       1.0  0.4917020632366006  0.6216521455200322  0.9659539237663134  1.0000
  H   H56       1.0  0.5082979363827987  0.37834785452491515  0.034046076625544014  1.0000
  H   H57       1.0  0.4369770105086334  0.9848667455144311  0.9182088254580903  1.0000
  H   H58       1.0  0.5630229891939785  0.015133254869407258  0.08179117418893767  1.0000
  H   H59       1.0  0.17823851855114442  0.5532515632570324  0.09625275778746689  1.0000
  H   H60       1.0  0.8217614814701932  0.4467484363107139  0.9037472418627144  1.0000
  H   H61       1.0  0.2748046541916988  0.5308260516200192  0.2023496301111627  1.0000
  H   H62       1.0  0.7251953466769699  0.4691739487592169  0.7976503695437339  1.0000
  H   H63       1.0  0.38890918733277724  0.4941930575492714  0.10439829889484631  1.0000
  H   H64       1.0  0.6110908123698348  0.505806942834567  0.8956017007521817  1.0000
  H   H65       1.0  0.54058287217889  0.8784437197368952  0.773549165675675  1.0000
  H   H66       1.0  0.45941712868977846  0.1215562806423412  0.2264508339792216  1.0000
  H   H67       1.0  0.6579114812592994  0.7345321991248356  0.8381808250595196  1.0000
  H   H68       1.0  0.3420885184433128  0.26546780125900266  0.16181917458750839  1.0000
  H   H69       1.0  0.6935476801270645  0.8604843864386363  0.8485092648195305  1.0000
  H   H70       1.0  0.30645231949233487  0.13951561360631085  0.1514907355723269  1.0000
  H   H71       1.0  0.24159714244631633  0.9821653894270889  0.13706661406445916  1.0000
  H   H72       1.0  0.7584028572562957  0.017834610956749274  0.8629333855825688  1.0000
  H   H73       1.0  0.07888026125650459  0.018430775316628248  0.06138056948184286  1.0000
  H   H74       1.0  0.9211197396121641  0.9815692250626078  0.9386194301730537  1.0000
  H   H75       1.0  0.2575582440021885  0.07317990424133165  0.008059410590046117  1.0000
  H   H76       1.0  0.7424417557004236  0.9268200961425067  0.9919405890569819  1.0000
  H   H77       1.0  0.20399034295525645  0.5765438268761985  0.8640726378800546  1.0000
  H   H78       1.0  0.7960096570660812  0.4234561726915477  0.13592736177012676  1.0000
  H   H79       1.0  0.9670083299184188  0.7161065153068756  0.9023750237638852  1.0000
  H   H80       1.0  0.03299167001970637  0.2838934839219797  0.09762497663112532  1.0000
  H   H81       1.0  0.7613635245552818  0.6404597163229753  0.03667274991680606  1.0000
  H   H82       1.0  0.2386364750641175  0.3595402837219721  0.9633272504750513  1.0000
  C   C1        1.0  0.7430137124383885  0.5962995623448034  0.2955368488842575  1.0000
  C   C2        1.0  0.2569862871810108  0.40370043770014385  0.7044631515075999  1.0000
  C   C3        1.0  0.9617155538244858  0.6865450072309112  0.1979182281824794  1.0000
  C   C4        1.0  0.038284445794913524  0.31345499281403616  0.8020817722093779  1.0000
  C   C5        1.0  0.2188741085779763  0.6627669131283009  0.3111660858397107  1.0000
  C   C6        1.0  0.7811258910414229  0.33723308691664655  0.6888339145521466  1.0000
  C   C7        1.0  0.13091865477811515  0.6546113490140718  0.41174762974720724  1.0000
  C   C8        1.0  0.869081344924497  0.34538865136976643  0.5882523698998208  1.0000
  C   C9        1.0  0.2277593534607402  0.5556425317726827  0.4970318492662525  1.0000
  C   C10       1.0  0.7722406461586593  0.4443574682722646  0.5029681511256049  1.0000
  C   C11       1.0  0.8507289094819015  0.34018851720567783  0.3522419138338133  1.0000
  C   C12       1.0  0.14927109170549283  0.6598114823574661  0.6477580858242366  1.0000
  C   C13       1.0  0.7018784104905076  0.32797607638579035  0.3320421423704944  1.0000
  C   C14       1.0  0.2981215895308301  0.6720239231819557  0.667957857279687  1.0000
  C   C15       1.0  0.7004684980305464  0.23849322927344555  0.30038409128494636  1.0000
  C   C16       1.0  0.2995315016720656  0.7615067711103927  0.6996159083620818  1.0000
  C   C17       1.0  0.8419401962654733  0.15850463420709363  0.28906890514304373  1.0000
  C   C18       1.0  0.15805980343713857  0.8414953661767448  0.7109310945039842  1.0000
  C   C19       1.0  0.9870251317161063  0.16822057915349692  0.313539289446834  1.0000
  C   C20       1.0  0.012974867986505744  0.8317794212303414  0.686460710200194  1.0000
  C   C21       1.0  0.994191823690825  0.2572014797993909  0.3441329600986788  1.0000
  C   C22       1.0  0.005808176011786953  0.7427985205844475  0.6558670395483492  1.0000
  C   C23       1.0  0.5423069655719187  0.4091717315584427  0.34051565087807123  1.0000
  C   C24       1.0  0.4576930343662064  0.5908282676704125  0.6594843495169395  1.0000
  C   C25       1.0  0.837805953717182  0.06860281274257161  0.24875784023781414  1.0000
  C   C26       1.0  0.1621940459854301  0.9313971876412666  0.7512421594092139  1.0000
  C   C27       1.0  0.1577528912229691  0.2622655972671296  0.36547727072588604  1.0000
  C   C28       1.0  0.842247108479643  0.7377344031167087  0.634522728921142  1.0000
  C   C29       1.0  0.7051398866752496  0.8097068093320086  0.22367911511240585  1.0000
  C   C30       1.0  0.2948601129441496  0.19029319071293888  0.7763208852794515  1.0000
  C   C31       1.0  0.5823942395480087  0.8373703947368405  0.30070047473120887  1.0000
  C   C32       1.0  0.41760576015460327  0.16262960564699774  0.6992995249158191  1.0000
  C   C33       1.0  0.3149219060436419  0.8976332606746165  0.34671774276215184  1.0000
  C   C34       1.0  0.6850780936589701  0.1023667397092219  0.6532822568848762  1.0000
  C   C35       1.0  0.35323584544599484  0.8947620605413311  0.4361271169702907  1.0000
  C   C36       1.0  0.6467641541734046  0.10523793950361615  0.5638728834215667  1.0000
  C   C37       1.0  0.5166014722829244  0.860753809114509  0.45742633484324907  1.0000
  C   C38       1.0  0.4833985274196878  0.13924619126932927  0.5425736648037789  1.0000
  C   C39       1.0  0.6325351022834365  0.8310693495717645  0.3892279584433962  1.0000
  C   C40       1.0  0.36746489733596294  0.16893065047318312  0.6107720419484611  1.0000
  C   C41       1.0  0.24698755974111966  0.777538781609852  0.0962249903840654  1.0000
  C   C42       1.0  0.7530124402802181  0.22246121795789395  0.9037750092661159  1.0000
  C   C43       1.0  0.32249818650596546  0.6806351599297366  0.06878598841860031  1.0000
  C   C44       1.0  0.6775018134321596  0.31936483929911846  0.9312140119764104  1.0000
  C   C45       1.0  0.4348759117069574  0.6969364706710399  0.9865854092414792  1.0000
  C   C46       1.0  0.5651240894804368  0.3030635288921042  0.013414590416570726  1.0000
  C   C47       1.0  0.47799889398821976  0.8050278757714288  0.9312977539316073  1.0000
  C   C48       1.0  0.5220011056311796  0.19497212427351862  0.06870224646025  1.0000
  C   C49       1.0  0.40369355947852603  0.8998125547793809  0.9594906581231935  1.0000
  C   C50       1.0  0.596306440224086  0.10018744560445747  0.04050934152383463  1.0000
  C   C51       1.0  0.2877797437064362  0.8886871286574008  0.03926449705532313  1.0000
  C   C52       1.0  0.7122202571622325  0.11131287172183536  0.9607355025995735  1.0000
  C   C53       1.0  0.2886840081116095  0.5587699420872149  0.12135325886733664  1.0000
  C   C54       1.0  0.7113159915910027  0.4412300582966235  0.8786467407796913  1.0000
  C   C55       1.0  0.5989575178234713  0.8195765364971863  0.8436623091485261  1.0000
  C   C56       1.0  0.401042481879141  0.1804234638866519  0.15633769049850202  1.0000
  C   C57       1.0  0.21168701076611418  0.9967764279009647  0.062481294859836244  1.0000
  C   C58       1.0  0.7883129891720109  0.0032235713278905968  0.9375187055351744  1.0000
  C   C59       1.0  0.11482719619209372  0.5426405396132112  0.9235131670134215  1.0000
  C   C60       1.0  0.8851728034273058  0.4573594604317362  0.07648683337843584  1.0000
  C   C61       1.0  0.9811918805831035  0.6213497236169437  0.9449660962346509  1.0000
  C   C62       1.0  0.018808120285565298  0.3786502767622925  0.05503390342024556  1.0000
  C   C63       1.0  0.866507377821854  0.5787385118317487  0.021196172971453046  1.0000
  C   C64       1.0  0.13349262219948368  0.4212614877359974  0.9788038266787282  1.0000
  N   N1        1.0  0.8193862024122147  0.696750073826268  0.2658146223097491  1.0000
  N   N2        1.0  0.1806137972903974  0.30324992655757027  0.7341853773372788  1.0000
  N   N3        1.0  0.4255331227494736  0.870258143424259  0.27981564416239985  1.0000
  N   N4        1.0  0.5744668784379207  0.12974185613888495  0.7201843554956502  1.0000
  P   P1        1.0  0.8799452561757677  0.46226808943258285  0.37995496808836354  1.0000
  P   P2        1.0  0.12005474352684435  0.5377319109512554  0.6200450315586644  1.0000
  P   P3        1.0  0.10054197890435106  0.7737086831992929  0.20346769947000495  1.0000
  P   P4        1.0  0.8994580207982611  0.2262913171845454  0.7965323001770231  1.0000
