data_image0
_chemical_formula_structural       H38C24N18O8S12
_chemical_formula_sum              "H38 C24 N18 O8 S12"
_cell_length_a       11.216794386237932
_cell_length_b       6.798078766704883
_cell_length_c       14.200313822300858
_cell_angle_alpha    90.0
_cell_angle_beta     98.84993807270433
_cell_angle_gamma    90.0

_space_group_name_H-M_alt    "P 1"
_space_group_IT_number       1

loop_
  _space_group_symop_operation_xyz
  'x, y, z'

loop_
  _atom_site_type_symbol
  _atom_site_label
  _atom_site_symmetry_multiplicity
  _atom_site_fract_x
  _atom_site_fract_y
  _atom_site_fract_z
  _atom_site_occupancy
  H   H1        1.0  0.039586645560276246  0.607821927606591  0.070116284124289  1.0000
  H   H2        1.0  0.9604133545481924  0.10782192662873276  0.9298837155764753  1.0000
  H   H3        1.0  0.35453896911329097  0.5869962804114759  0.9580639442731584  1.0000
  H   H4        1.0  0.6454610309944367  0.08699627943361753  0.04193605613172529  1.0000
  H   H5        1.0  0.4714458693833484  0.5907791300786422  0.1348975962779987  1.0000
  H   H6        1.0  0.5285541307243793  0.09077913057178767  0.8651024041268849  1.0000
  H   H7        1.0  0.7824901746286506  0.5104530131359455  0.3272154945021567  1.0000
  H   H8        1.0  0.21750982547981826  0.010453013629090959  0.6727845051986076  1.0000
  H   H9        1.0  0.8014993666440704  0.6067300279310012  0.041918477562142606  1.0000
  H   H10       1.0  0.1985006334643983  0.1067300269531428  0.9580815221386216  1.0000
  H   H11       1.0  0.008081042815306822  0.6500048560252034  0.7170142710437531  1.0000
  H   H12       1.0  0.9919189572924209  0.15000485504734504  0.28298572936113053  1.0000
  H   H13       1.0  0.8932035356290352  0.778235275223852  0.6502344337165089  1.0000
  H   H14       1.0  0.10679646447943339  0.2782352757169976  0.34976556598425534  1.0000
  H   H15       1.0  0.03159126910341628  0.7681217781080596  0.6161997343138875  1.0000
  H   H16       1.0  0.9684087310043115  0.26812177713020124  0.38380026609099616  1.0000
  H   H17       1.0  0.7422885241718722  0.5206143502387639  0.7897580685993792  1.0000
  H   H18       1.0  0.2577114750343348  0.020614350731909314  0.21024193099116065  1.0000
  H   H19       1.0  0.44413185093232216  0.5443674716045919  0.5807822905901728  1.0000
  H   H20       1.0  0.5558681491754056  0.0443674720977374  0.4192177098147108  1.0000
  H   H21       1.0  0.016618264125469524  0.42185009447750854  0.5863471025290757  1.0000
  H   H22       1.0  0.9833817350807376  0.921850093984363  0.41365289706146413  1.0000
  H   H23       1.0  0.8528755387005323  0.22757314133767825  0.6106649956515483  1.0000
  H   H24       1.0  0.14712446140719537  0.7275731408445327  0.3893350047533354  1.0000
  H   H25       1.0  0.8970607566360729  0.35576666187589534  0.7172349432501209  1.0000
  H   H26       1.0  0.10293924257013412  0.8557666613827498  0.28276505634041893  1.0000
  H   H27       1.0  0.5148999900173733  0.6056993190733284  0.7577714795853221  1.0000
  H   H28       1.0  0.48510001009035447  0.10569931956647387  0.24222852081956167  1.0000
  H   H29       1.0  0.618661183442655  0.4294508375364251  0.49567509003986865  1.0000
  H   H30       1.0  0.3813388166658137  0.9294508385142835  0.5043249096608955  1.0000
  H   H31       1.0  0.2455805016251647  0.4354267568209984  0.5453664511625562  1.0000
  H   H32       1.0  0.7544194984825631  0.9354267577988568  0.45463354924232746  1.0000
  H   H33       1.0  0.24615220325481  0.6674546405997794  0.5481214561525368  1.0000
  H   H34       1.0  0.7538477968536588  0.16745464109292493  0.45187854354822726  1.0000
  H   H35       1.0  0.2558341889744147  0.4704315380491137  0.28961598567743374  1.0000
  H   H36       1.0  0.7441658111340541  0.9704315375559682  0.7103840140233303  1.0000
  H   H37       1.0  0.27016838965791906  0.47829548341288775  0.40269559069696975  1.0000
  H   H38       1.0  0.7298316104498087  0.9782954829197422  0.5973044097079139  1.0000
  C   C1        1.0  0.19734734336576537  0.5762977474147403  0.8568356504839046  1.0000
  C   C2        1.0  0.8026526567419624  0.07629774643688189  0.14316434992097912  1.0000
  C   C3        1.0  0.018492383315467473  0.6014445301847877  0.9209006167522176  1.0000
  C   C4        1.0  0.9815076167930011  0.10144453067793323  0.07909938294854667  1.0000
  C   C5        1.0  0.20743657025526674  0.6001564206614195  0.028816186343375422  1.0000
  C   C6        1.0  0.7925634298524611  0.10015642115456498  0.9711838140615083  1.0000
  C   C7        1.0  0.627311971694799  0.5988208433149981  0.07341729647013906  1.0000
  C   C8        1.0  0.372688027510667  0.09882084380814349  0.9265827038245203  1.0000
  C   C9        1.0  0.6172952414285292  0.5583035031292636  0.24201025640987991  1.0000
  C   C10       1.0  0.38270475777767765  0.05830350362240902  0.75798974318066  1.0000
  C   C11       1.0  0.8111932855345663  0.570151915418114  0.1881671457173585  1.0000
  C   C12       1.0  0.18880671457390238  0.07015191591125955  0.8118328539834057  1.0000
  C   C13       1.0  0.8730142990873626  0.554332088421298  0.48952247834487606  1.0000
  C   C14       1.0  0.12698570102036516  0.05433208891444348  0.5104775220600076  1.0000
  C   C15       1.0  0.9336850073807635  0.5050889373063747  0.5912444677042752  1.0000
  C   C16       1.0  0.06631499272770512  0.005088937799520179  0.40875553199648895  1.0000
  C   C17       1.0  0.8531361202921911  0.3738972682177431  0.6430705565917972  1.0000
  C   C18       1.0  0.1468638798162777  0.8738972677245975  0.3569294431089669  1.0000
  C   C19       1.0  0.7264891698530064  0.44211651161212207  0.6424530036249214  1.0000
  C   C20       1.0  0.27351083025472145  0.9421165125899804  0.35754699677996227  1.0000
  C   C21       1.0  0.5705105805435629  0.5553047867713651  0.7066655559886821  1.0000
  C   C22       1.0  0.4294894195649058  0.055304787264510574  0.2933344437120821  1.0000
  C   C23       1.0  0.6281659561774575  0.45662090813116885  0.5716958875792634  1.0000
  C   C24       1.0  0.3718340439302702  0.9566209091090272  0.4283041128256203  1.0000
  N   N1        1.0  0.07516304973807228  0.5844278532721029  0.844810393259703  1.0000
  N   N2        1.0  0.9248369503696555  0.08442785229424454  0.15518960714518065  1.0000
  N   N3        1.0  0.08488838479142191  0.6053879149144993  0.011717736038176841  1.0000
  N   N4        1.0  0.9151116153170468  0.10538791393664088  0.9882822636625873  1.0000
  N   N5        1.0  0.26090943329660554  0.587006428866998  0.9492757615108726  1.0000
  N   N6        1.0  0.7390905668118631  0.08700642788913968  0.050724238189891656  1.0000
  N   N7        1.0  0.5657495054916801  0.5834332457907782  0.14861331762132426  1.0000
  N   N8        1.0  0.43425049461604753  0.08343324481291974  0.8513866827835594  1.0000
  N   N9        1.0  0.7405571266818707  0.5472574248802471  0.2577450368676612  1.0000
  N   N10       1.0  0.25944287342585703  0.04725742390238863  0.7422549635372224  1.0000
  N   N11       1.0  0.7502553530395742  0.5940520974512731  0.09750153593646659  1.0000
  N   N12       1.0  0.2497446470688945  0.09405209794441857  0.9024984637642977  1.0000
  N   N13       1.0  0.9688042186387631  0.6871084596544182  0.6469196272342835  1.0000
  N   N14       1.0  0.03119578146896466  0.18710846014756374  0.3530803731706002  1.0000
  N   N15       1.0  0.6865394618709969  0.5038454139095286  0.724930668274537  1.0000
  N   N16       1.0  0.3134605382367308  0.0038454144026741086  0.27506933213034673  1.0000
  N   N17       1.0  0.533602633438424  0.5276431361119174  0.6134329779245843  1.0000
  N   N18       1.0  0.46639736667004467  0.027643136605062808  0.38656702177617985  1.0000
  O   O1        1.0  0.8542103378330923  0.7313483913058392  0.4669965774270303  1.0000
  O   O2        1.0  0.14578966227463536  0.23134839179898467  0.5330034229778534  1.0000
  O   O3        1.0  0.8457547011066887  0.4059402538134492  0.434019833422047  1.0000
  O   O4        1.0  0.1542452990010391  0.9059402533203037  0.5659801669828367  1.0000
  O   O5        1.0  0.2922747315707536  0.5526549425112152  0.5308094689934544  1.0000
  O   O6        1.0  0.7077252685369743  0.05265494153335681  0.4691905314114293  1.0000
  O   O7        1.0  0.23951013985428365  0.3988032314774286  0.34601940317192154  1.0000
  O   O8        1.0  0.7604898593511824  0.898803230984283  0.6539805971227378  1.0000
  S   S1        1.0  0.2734117856101123  0.5559153107359193  0.7651178958515649  1.0000
  S   S2        1.0  0.7265882144983564  0.055915311229064714  0.2348821038491994  1.0000
  S   S3        1.0  0.8674628778178254  0.6253285252916435  0.9113781078862124  1.0000
  S   S4        1.0  0.13253712228990228  0.12532852578478906  0.08862189251867135  1.0000
  S   S5        1.0  0.2851824370396532  0.6115545983906191  0.13874218130466268  1.0000
  S   S6        1.0  0.7148175630688156  0.11155459741276069  0.8612578183961016  1.0000
  S   S7        1.0  0.5595963283336881  0.621071987379532  0.9614384484011806  1.0000
  S   S8        1.0  0.44040367177403966  0.12107198640167365  0.03856155200370308  1.0000
  S   S9        1.0  0.5330656435749497  0.5420779173740303  0.32756908541946284  1.0000
  S   S10       1.0  0.46693435653277804  0.042077917867175824  0.6724309149854208  1.0000
  S   S11       1.0  0.9606928046553621  0.567782026725605  0.2100264868935901  1.0000
  S   S12       1.0  0.0393071945508448  0.06778202721875046  0.7899735126969498  1.0000
