data_image0
_chemical_formula_structural       H52C34N4O4S4Br4
_chemical_formula_sum              "H52 C34 N4 O4 S4 Br4"
_cell_length_a       9.176243231692073
_cell_length_b       10.952170034842798
_cell_length_c       11.793663683428159
_cell_angle_alpha    75.25477081464501
_cell_angle_beta     73.69122008928663
_cell_angle_gamma    72.46731645088678

_space_group_name_H-M_alt    "P 1"
_space_group_IT_number       1

loop_
  _space_group_symop_operation_xyz
  'x, y, z'

loop_
  _atom_site_type_symbol
  _atom_site_label
  _atom_site_symmetry_multiplicity
  _atom_site_fract_x
  _atom_site_fract_y
  _atom_site_fract_z
  _atom_site_occupancy
  H   H1        1.0  0.9640650587188944  0.31962923286559525  0.7050151822638746  1.0000
  H   H2        1.0  0.03593494182820526  0.6803707677260622  0.2949848178790538  1.0000
  H   H3        1.0  0.8400029994877793  0.47467873621385975  0.7180549515364247  1.0000
  H   H4        1.0  0.15999700031146838  0.5253212634213102  0.2819450486078425  1.0000
  H   H5        1.0  0.08528245950157169  0.4881080106447303  0.8784570655598409  1.0000
  H   H6        1.0  0.9147175399558132  0.5118919899486131  0.12154293458126246  1.0000
  H   H7        1.0  0.387394112539806  0.6800417573693741  0.7868755341870786  1.0000
  H   H8        1.0  0.612605887259442  0.31995824226579583  0.21312446595718879  1.0000
  H   H9        1.0  0.4250929890497896  0.5143514701836995  0.855697792347439  1.0000
  H   H10       1.0  0.574907011839173  0.4856485294497846  0.14430220779865335  1.0000
  H   H11       1.0  0.42597846410049317  0.6368649402142491  0.5864215193246645  1.0000
  H   H12       1.0  0.5740215356987546  0.3631350594209209  0.4135784808196029  1.0000
  H   H13       1.0  0.32919263104060376  0.5653264773776712  0.4423857908338464  1.0000
  H   H14       1.0  0.6708073690214994  0.434673522435064  0.5576142084113327  1.0000
  H   H15       1.0  0.11666981649863378  0.4502323564403572  0.5176746225892711  1.0000
  H   H16       1.0  0.8833301833006141  0.5497676431948129  0.4823253775549962  1.0000
  H   H17       1.0  0.09212894476814275  0.13782415051390934  0.8016825570807015  1.0000
  H   H18       1.0  0.9078710546892422  0.8621758500794341  0.19831744306040175  1.0000
  H   H19       1.0  0.2184214085748839  0.184091767032592  0.8646912243036424  1.0000
  H   H20       1.0  0.7815785912243641  0.815908232602578  0.1353087758406248  1.0000
  H   H21       1.0  0.12559277402049537  0.058403680093693816  0.9462575361533404  1.0000
  H   H22       1.0  0.874407225699745  0.9415963206772148  0.05374246308867445  1.0000
  H   H23       1.0  0.0081801074947136  0.0638613841992287  0.1468987720798854  1.0000
  H   H24       1.0  0.9918198923045343  0.9361386154359411  0.8531012280643819  1.0000
  H   H25       1.0  0.9554482659746251  0.1896128323336369  0.23044588488805887  1.0000
  H   H26       1.0  0.044551733482759835  0.8103871682597064  0.7695541152530445  1.0000
  H   H27       1.0  0.8084731489237613  0.12289421148357792  0.2154183896717535  1.0000
  H   H28       1.0  0.1915268518861938  0.8771057892856449  0.7845816095720867  1.0000
  H   H29       1.0  0.6188545379073298  0.968301741491753  0.550499684039849  1.0000
  H   H30       1.0  0.38114546298163277  0.03169825814173113  0.44950031610624347  1.0000
  H   H31       1.0  0.7578639766385712  0.06630778418055396  0.4768352529278854  1.0000
  H   H32       1.0  0.24213602425039152  0.9336922154529301  0.5231647472182069  1.0000
  H   H33       1.0  0.6653939375167016  0.0128180914532976  0.3880645158618524  1.0000
  H   H34       1.0  0.33460606194068343  0.9871819091400457  0.6119354842792508  1.0000
  H   H35       1.0  0.8030266974509243  0.816040641833569  0.6774626808118421  1.0000
  H   H36       1.0  0.19697330200646057  0.18395935875977454  0.32253731932926105  1.0000
  H   H37       1.0  0.9362892233802136  0.9202680277742249  0.6067431701857551  1.0000
  H   H38       1.0  0.0637107764190342  0.0797319718609452  0.39325682995851224  1.0000
  H   H39       1.0  0.0072344105312872695  0.7452963227654499  0.6162397981556264  1.0000
  H   H40       1.0  0.992765589530816  0.25470367704728525  0.3837602010895527  1.0000
  H   H41       1.0  0.3586737659788294  0.9755016555062017  0.1190955032094211  1.0000
  H   H42       1.0  0.6413262337414108  0.024498345264706973  0.8809044960325938  1.0000
  H   H43       1.0  0.20408215489720308  0.8939897364767364  0.20162635682943886  1.0000
  H   H44       1.0  0.7959178449020449  0.10601026315843357  0.7983736433148285  1.0000
  H   H45       1.0  0.30030058638759477  0.8776246944165567  0.04638539473568053  1.0000
  H   H46       1.0  0.699699413411653  0.12237530521861346  0.9536146054085868  1.0000
  H   H47       1.0  0.4928404932876344  0.8791067668747337  0.29884371405549753  1.0000
  H   H48       1.0  0.5071595076013282  0.12089323275875045  0.7011562860905949  1.0000
  H   H49       1.0  0.5342725882803206  0.707299903364348  0.3647887214555629  1.0000
  H   H50       1.0  0.46572741260864214  0.29270009626913596  0.6352112786905295  1.0000
  H   H51       1.0  0.3332862082071454  0.8019202550391085  0.37433858287352767  1.0000
  H   H52       1.0  0.6667137912502396  0.198079745554235  0.6256614172675756  1.0000
  C   C1        1.0  0.7880475338821856  0.43678063585523647  0.9496533820424709  1.0000
  C   C2        1.0  0.21195246557519937  0.563219364738107  0.050346618098632376  1.0000
  C   C3        1.0  0.8960739380844015  0.2489761331650129  0.058820890217556536  1.0000
  C   C4        1.0  0.10392606280456106  0.7510238664684712  0.9411791099285359  1.0000
  C   C5        1.0  0.9732625750409775  0.24899547941763409  0.9409357045155616  1.0000
  C   C6        1.0  0.026737424758270286  0.7510045202175359  0.05906429562870577  1.0000
  C   C7        1.0  0.944474610779152  0.4053785779450272  0.7446620346543285  1.0000
  C   C8        1.0  0.055525389020095864  0.5946214216901428  0.255337965489939  1.0000
  C   C9        1.0  0.08355288490837108  0.4647564206262505  0.7029424380303807  1.0000
  C   C10       1.0  0.916447114811869  0.5352435801446581  0.2970575612116343  1.0000
  C   C11       1.0  0.1389018765730873  0.5046850758676897  0.7827576289631737  1.0000
  C   C12       1.0  0.8610981231471531  0.49531492490321893  0.2172423702788411  1.0000
  C   C13       1.0  0.2629747960198461  0.5652212121973458  0.7422831882804503  1.0000
  C   C14       1.0  0.7370252034375392  0.4347787883959976  0.257716811860653  1.0000
  C   C15       1.0  0.33179969985376173  0.5984447542585769  0.8290078198298252  1.0000
  C   C16       1.0  0.668200301035201  0.4015552453749072  0.17099218031626714  1.0000
  C   C17       1.0  0.33037595017105204  0.5882060712112352  0.6191657268460324  1.0000
  C   C18       1.0  0.6696240498910512  0.4117939286015001  0.3808342723991466  1.0000
  C   C19       1.0  0.2770892405290869  0.5474346789959341  0.5385269394652357  1.0000
  C   C20       1.0  0.722910759270161  0.45256532063923577  0.46147306067903165  1.0000
  C   C21       1.0  0.15561062642810367  0.4844326498835306  0.5804594132028595  1.0000
  C   C22       1.0  0.8443893733711442  0.5155673497516394  0.4195405869414079  1.0000
  C   C23       1.0  0.10911365590770215  0.15281675842508574  0.885172976745544  1.0000
  C   C24       1.0  0.8908863449812605  0.8471832412083982  0.11482702340054851  1.0000
  C   C25       1.0  0.9183912654335774  0.15131475346783949  0.16878925591690333  1.0000
  C   C26       1.0  0.08160873402380735  0.848685247125504  0.8312107442242  1.0000
  C   C27       1.0  0.31324950563808623  0.8894990063933141  0.1323234873656762  1.0000
  C   C28       1.0  0.6867504941611617  0.11050099324185605  0.8676765127785911  1.0000
  C   C29       1.0  0.9075476170354554  0.8298391331182389  0.6066661203566407  1.0000
  C   C30       1.0  0.09245238242192959  0.17016086747510453  0.39333387978446255  1.0000
  C   C31       1.0  0.4536307889518975  0.7886651049393629  0.32012290233684154  1.0000
  C   C32       1.0  0.5463692119370652  0.21133489469412103  0.6798770978092509  1.0000
  C   C33       1.0  0.7104705495744473  0.9882403596018555  0.4701707328850214  1.0000
  C   C34       1.0  0.2895294498829378  0.011759640991488001  0.5298292672560818  1.0000
  N   N1        1.0  0.7810546208043823  0.3663931012932915  0.06215228183043476  1.0000
  N   N2        1.0  0.21894537899486544  0.6336068983418784  0.9378477183138325  1.0000
  N   N3        1.0  0.9022473912209132  0.3660789990876564  0.8746739136887104  1.0000
  N   N4        1.0  0.09775260849932706  0.6339210016832524  0.12532608555330454  1.0000
  O   O1        1.0  0.003621483278874263  0.8725471555547836  0.36781115106423645  1.0000
  O   O2        1.0  0.9963785165203738  0.12745284408038637  0.6321888490800308  1.0000
  O   O3        1.0  0.38305070050296747  0.6333660842673596  0.21442371462306328  1.0000
  O   O4        1.0  0.6169492992962804  0.36663391536781037  0.785576285521204  1.0000
  S   S1        1.0  0.864417619798869  0.8410340320235494  0.4644940848411621  1.0000
  S   S2        1.0  0.135582380000379  0.15896596761162052  0.5355059153031052  1.0000
  S   S3        1.0  0.45752113946680156  0.747392646062678  0.18093661886682536  1.0000
  S   S4        1.0  0.5424788599905833  0.2526073545306655  0.8190633812742779  1.0000
  Br  Br1       1.0  0.6733193085542959  0.6076733678259502  0.9028778191901278  1.0000
  Br  Br2       1.0  0.3266806909030891  0.3923266327673933  0.09712218095097543  1.0000
  Br  Br3       1.0  0.49156243040384295  0.8768824214770045  0.7990935544093627  1.0000
  Br  Br4       1.0  0.508437569053542  0.12311757911633898  0.2009064457317405  1.0000
