data_image0
_chemical_formula_structural       H68C72N4O20
_chemical_formula_sum              "H68 C72 N4 O20"
_cell_length_a       10.7543960247808
_cell_length_b       8.307810840450898
_cell_length_c       18.998942266899437
_cell_angle_alpha    90.0
_cell_angle_beta     114.30581250230928
_cell_angle_gamma    90.0

_space_group_name_H-M_alt    "P 1"
_space_group_IT_number       1

loop_
  _space_group_symop_operation_xyz
  'x, y, z'

loop_
  _atom_site_type_symbol
  _atom_site_label
  _atom_site_symmetry_multiplicity
  _atom_site_fract_x
  _atom_site_fract_y
  _atom_site_fract_z
  _atom_site_occupancy
  H   H1        1.0  0.12702062479302414  0.6602331162010788  0.4400722293474202  1.0000
  H   H2        1.0  0.8729793752519638  0.16023311622821582  0.05992777100379149  1.0000
  H   H3        1.0  0.872979375989795  0.3397668837446472  0.5599277710425351  1.0000
  H   H4        1.0  0.12702062451057985  0.8397668837175102  0.9400722291511634  1.0000
  H   H5        1.0  0.13757406015104506  0.5763421835131874  0.5665263817801854  1.0000
  H   H6        1.0  0.8624259393290542  0.0763421835403245  0.9334736181785127  1.0000
  H   H7        1.0  0.8624259396114984  0.42365781643253847  0.43347361837476944  1.0000
  H   H8        1.0  0.13757406042822704  0.9236578164054015  0.066526381448878  1.0000
  H   H9        1.0  0.2976815891231339  0.3591253300415866  0.6428531573682558  1.0000
  H   H10       1.0  0.702318411377241  0.8591253300144497  0.8571468428254427  1.0000
  H   H11       1.0  0.7023184116596852  0.6408746699041393  0.3571468430216994  1.0000
  H   H12       1.0  0.29768158838530256  0.14087466993127637  0.14285315732951223  1.0000
  H   H13       1.0  0.44493971382952957  0.22281130679902852  0.5880502239684982  1.0000
  H   H14       1.0  0.5550602856505696  0.7228113067718915  0.9119497759902001  1.0000
  H   H15       1.0  0.555060285933014  0.7771886931466975  0.41194977618645673  1.0000
  H   H16       1.0  0.44493971410671157  0.27718869317383443  0.08805022363719069  1.0000
  H   H17       1.0  0.5226000214658884  0.18758624623612852  0.49337662142774497  1.0000
  H   H18       1.0  0.47739997857383726  0.6875862462089916  0.0066233783959025625  1.0000
  H   H19       1.0  0.47739997829139297  0.8124137537095975  0.5066233781996459  1.0000
  H   H20       1.0  0.522600022208982  0.31241375373673447  0.9933766219940527  1.0000
  H   H21       1.0  0.3953273915457482  0.40328010282648197  0.35903668917088954  1.0000
  H   H22       1.0  0.6046726084939774  0.903280102799345  0.14096331065275794  1.0000
  H   H23       1.0  0.6046726082167954  0.596719897119244  0.6409633109840653  1.0000
  H   H24       1.0  0.39532739126330396  0.096719897146381  0.8590366889746329  1.0000
  H   H25       1.0  0.47503094778399185  0.3915410319842399  0.2603701754666439  1.0000
  H   H26       1.0  0.5249690522609961  0.8915410319571029  0.23962982488456774  1.0000
  H   H27       1.0  0.5249690529988275  0.608458967961486  0.7396298249233113  1.0000
  H   H28       1.0  0.4750309475015475  0.10845896798862312  0.7603701752703872  1.0000
  H   H29       1.0  0.6235583518383355  0.2673853416575186  0.20433570354452288  1.0000
  H   H30       1.0  0.37644164820139003  0.7673853416303816  0.2956642962791246  1.0000
  H   H31       1.0  0.3764416489392214  0.7326146582882074  0.7956642963178682  1.0000
  H   H32       1.0  0.6235583515558912  0.23261465831534442  0.7043357033482661  1.0000
  H   H33       1.0  0.7786932726159366  0.04167718387545856  0.272737568954791  1.0000
  H   H34       1.0  0.22130672742905133  0.5416771838483215  0.22726243139642066  1.0000
  H   H35       1.0  0.22130672816688265  0.9583228160702675  0.7272624314351643  1.0000
  H   H36       1.0  0.7786932723334922  0.45832281609740444  0.7727375687585342  1.0000
  H   H37       1.0  0.7776399577992023  0.9354142420000289  0.3952554686778372  1.0000
  H   H38       1.0  0.22236004224578562  0.43541424202716594  0.10474453167337443  1.0000
  H   H39       1.0  0.22236004196334136  0.06458575794569708  0.6047445314771177  1.0000
  H   H40       1.0  0.7776399585370335  0.56458575791856  0.8952554687165807  1.0000
  H   H41       1.0  0.6320643411637967  0.058208837356455  0.4518937444293438  1.0000
  H   H42       1.0  0.3679356588811912  0.558208837329318  0.0481062559218678  1.0000
  H   H43       1.0  0.3679356585987469  0.941791162589271  0.548106255725611  1.0000
  H   H44       1.0  0.6320643419016281  0.441791162616408  0.9518937444680875  1.0000
  H   H45       1.0  0.21090139558218882  0.6690829036375017  0.3451290570395307  1.0000
  H   H46       1.0  0.7890986044627991  0.16908290366463866  0.15487094331168097  1.0000
  H   H47       1.0  0.7890986041803548  0.33091709630822436  0.6548709431154242  1.0000
  H   H48       1.0  0.21090139529974455  0.8309170962810873  0.845129056843274  1.0000
  H   H49       1.0  0.028754659443013898  0.2642987800479131  0.33423357576432045  1.0000
  H   H50       1.0  0.9712453405967116  0.764298780020776  0.16576642405932698  1.0000
  H   H51       1.0  0.9712453413345431  0.7357012198978128  0.6657664240980706  1.0000
  H   H52       1.0  0.028754659165831923  0.23570121992494988  0.8342335760956279  1.0000
  H   H53       1.0  0.9737652422859137  0.13405727951547267  0.49544355046713795  1.0000
  H   H54       1.0  0.026234757753811944  0.6340572794883356  0.004556449356509454  1.0000
  H   H55       1.0  0.02623475747662997  0.8659427204302532  0.5045564496878169  1.0000
  H   H56       1.0  0.9737652420034693  0.36594272045739035  0.9954435502708813  1.0000
  H   H57       1.0  0.11239100340794021  0.24493062601911156  0.234068647250575  1.0000
  H   H58       1.0  0.8876089966317853  0.7449306259919746  0.2659313525730725  1.0000
  H   H59       1.0  0.887608997374879  0.7550693739266143  0.7659313531393803  1.0000
  H   H60       1.0  0.11239100312549594  0.25506937395375145  0.7340686470543182  1.0000
  H   H61       1.0  0.11285198927238986  0.040927301611689795  0.20534906232757866  1.0000
  H   H62       1.0  0.887148010772598  0.5409273027882393  0.29465093802363296  1.0000
  H   H63       1.0  0.8871480104901537  0.9590726983340362  0.7946509378273762  1.0000
  H   H64       1.0  0.1128519889899456  0.4590726983611732  0.7053490621313219  1.0000
  H   H65       1.0  0.26918852046128916  0.13276574794282825  0.26397844080572963  1.0000
  H   H66       1.0  0.7308114795784363  0.6327657479156912  0.23602155901791783  1.0000
  H   H67       1.0  0.7308114792959921  0.8672342520028977  0.7360215588216611  1.0000
  H   H68       1.0  0.26918852017884487  0.36723425203003474  0.763978440609473  1.0000
  C   C1        1.0  0.27735151104904265  0.48798794626623526  0.43909466940420855  1.0000
  C   C2        1.0  0.7226484889959452  0.9879879462390981  0.06090533094700302  1.0000
  C   C3        1.0  0.7226484897337766  0.5120120536794907  0.5609053309857467  1.0000
  C   C4        1.0  0.27735151076659836  0.0120120537066277  0.9390946692079518  1.0000
  C   C5        1.0  0.19514869135432528  0.5632843031541648  0.47182434390341094  1.0000
  C   C6        1.0  0.8048513086854002  0.06328430318130177  0.02817565592023653  1.0000
  C   C7        1.0  0.8048513084082183  0.43671569679156125  0.528175656251544  1.0000
  C   C8        1.0  0.19514869107188101  0.9367156967644242  0.9718243437071542  1.0000
  C   C9        1.0  0.20232470683832773  0.5156035762325464  0.5432436585916838  1.0000
  C   C10       1.0  0.7976752936620473  0.015603576259683397  0.9567563416020147  1.0000
  C   C11       1.0  0.7976752929242159  0.4843964237131796  0.4567563415632711  1.0000
  C   C12       1.0  0.20232470610049638  0.9843964236860426  0.04324365855294015  1.0000
  C   C13       1.0  0.29192851331236985  0.39278487951501  0.5862766193024738  1.0000
  C   C14       1.0  0.7080714861677295  0.892784879487873  0.9137233806562244  1.0000
  C   C15       1.0  0.7080714864501737  0.607215120430716  0.4137233808524811  1.0000
  C   C16       1.0  0.29192851359481414  0.10721512045785299  0.08627661949873046  1.0000
  C   C17       1.0  0.37361720073859  0.31744730238187074  0.5563903441326263  1.0000
  C   C18       1.0  0.6263827987415093  0.8174473023547337  0.9436096558260717  1.0000
  C   C19       1.0  0.6263827990239537  0.6825526975638552  0.44360965602232855  1.0000
  C   C20       1.0  0.37361720101577195  0.18255269759099227  0.056390343801318896  1.0000
  C   C21       1.0  0.36794719738816883  0.36163806298663126  0.48299886332677733  1.0000
  C   C22       1.0  0.6320528026515567  0.8616380629594943  0.017001136496870118  1.0000
  C   C23       1.0  0.6320528023691124  0.6383619369590947  0.5170011363006134  1.0000
  C   C24       1.0  0.3679471981260002  0.13836193698623173  0.9829988633655211  1.0000
  C   C25       1.0  0.45459636811098236  0.27915228386135604  0.4562425982490173  1.0000
  C   C26       1.0  0.5454036309084676  0.7791522838342191  0.04375740133962982  1.0000
  C   C27       1.0  0.545403631646299  0.7208477160843699  0.5437574013783734  1.0000
  C   C28       1.0  0.4545963688488136  0.22084771611150694  0.9562425982877609  1.0000
  C   C29       1.0  0.5432763707099952  0.2326945168981578  0.35914921963829605  1.0000
  C   C30       1.0  0.4567236293349927  0.7326945168710208  0.14085078071291557  1.0000
  C   C31       1.0  0.4567236290525485  0.7673054830475682  0.6408507805166589  1.0000
  C   C32       1.0  0.543276370427551  0.2673054830747052  0.8591492194420394  1.0000
  C   C33       1.0  0.5410100126037142  0.29069320382707786  0.2893759309629432  1.0000
  C   C34       1.0  0.4589899874360113  0.7906932037999408  0.2106240688607043  1.0000
  C   C35       1.0  0.4589899871588293  0.7093067961186481  0.7106240691920116  1.0000
  C   C36       1.0  0.54101001232127  0.20930679614578512  0.7893759307666864  1.0000
  C   C37       1.0  0.6252910903224008  0.2214744347621831  0.25838470639791755  1.0000
  C   C38       1.0  0.3747089097173247  0.721474434735046  0.24161529342572993  1.0000
  C   C39       1.0  0.3747089094401428  0.7785255651835429  0.7416152937570374  1.0000
  C   C40       1.0  0.6252910910602322  0.2785255652106799  0.7583847064366612  1.0000
  C   C41       1.0  0.7115302872229163  0.09428263173568936  0.2965359840998371  1.0000
  C   C42       1.0  0.28846971282207146  0.5942826317085523  0.20346401625137453  1.0000
  C   C43       1.0  0.28846971253962717  0.9057173682100367  0.7034640160551179  1.0000
  C   C44       1.0  0.7115302879607478  0.40571736823717364  0.7965359841385807  1.0000
  C   C45       1.0  0.711527554322637  0.03551135499661762  0.3654625111860053  1.0000
  C   C46       1.0  0.2884724457170886  0.5355113549694807  0.13453748863764217  1.0000
  C   C47       1.0  0.2884724454399066  0.9644886449491084  0.6345374889689496  1.0000
  C   C48       1.0  0.7115275540401927  0.46448864497624537  0.8654625109897486  1.0000
  C   C49       1.0  0.6282268637306223  0.10362869310987755  0.3973133059525716  1.0000
  C   C50       1.0  0.3717731363091032  0.6036286930827406  0.10268669387107589  1.0000
  C   C51       1.0  0.37177313602665896  0.8963713068358484  0.6026866936748192  1.0000
  C   C52       1.0  0.6282268634534404  0.39637130686298544  0.897313306283879  1.0000
  C   C53       1.0  0.21847689272968082  0.9130201343857657  0.35510257068421996  1.0000
  C   C54       1.0  0.781523107315307  0.4130201344129027  0.14489742966699162  1.0000
  C   C55       1.0  0.7815231070328627  0.0869798655599603  0.644897429470735  1.0000
  C   C56       1.0  0.21847689244723653  0.5869798655328233  0.8551025704879633  1.0000
  C   C57       1.0  0.14375796175603903  0.06750127088468516  0.322761430580776  1.0000
  C   C58       1.0  0.8562420382836866  0.5675012708575482  0.17723856924287146  1.0000
  C   C59       1.0  0.8562420390215177  0.9324987290610408  0.677238569281615  1.0000
  C   C60       1.0  0.14375796147885708  0.4324987290881778  0.8227614309120834  1.0000
  C   C61       1.0  0.07375100409476308  0.1475062039247742  0.3564456562188975  1.0000
  C   C62       1.0  0.9262489959502248  0.6475062038976371  0.1435543441323142  1.0000
  C   C63       1.0  0.9262489956677805  0.8524937960209518  0.6435543439360575  1.0000
  C   C64       1.0  0.07375100381231879  0.3524937960480888  0.8564456560226407  1.0000
  C   C65       1.0  0.04993713463855865  0.08310173561468927  0.4215855528581921  1.0000
  C   C66       1.0  0.9500628654011669  0.5831017355875523  0.07841444696545534  1.0000
  C   C67       1.0  0.950062865123985  0.9168982643310367  0.5784144472967627  1.0000
  C   C68       1.0  0.04993713435611436  0.41689826435817373  0.9215855526619355  1.0000
  C   C69       1.0  0.1604602786787617  0.1273461361022731  0.2528826181189336  1.0000
  C   C70       1.0  0.8395397213609638  0.627346136075136  0.24711738170471387  1.0000
  C   C71       1.0  0.8395397221040576  0.8726538638434529  0.7471173822710216  1.0000
  C   C72       1.0  0.1604602783963174  0.3726538638705899  0.752882617922677  1.0000
  N   N1        1.0  0.45956717781061324  0.310006236234938  0.3892625685204703  1.0000
  N   N2        1.0  0.5404328222291123  0.810006236207801  0.11073743130317709  1.0000
  N   N3        1.0  0.5404328219519302  0.6899937637107879  0.6107374316344845  1.0000
  N   N4        1.0  0.45956717854844464  0.189993763737925  0.889262568559214  1.0000
  O   O1        1.0  0.27377066600536604  0.5295204085028542  0.3715040118387135  1.0000
  O   O2        1.0  0.7262293340343596  0.029520408529991195  0.12849598798493395  1.0000
  O   O3        1.0  0.7262293337519152  0.47047959144287177  0.6284959877886773  1.0000
  O   O4        1.0  0.2737706657281841  0.9704795914157348  0.8715040121700209  1.0000
  O   O5        1.0  0.1536515081503309  0.7832357085355641  0.32012860268365806  1.0000
  O   O6        1.0  0.8463484918893948  0.2832357085627012  0.1798713971399894  1.0000
  O   O7        1.0  0.8463484916069504  0.21676429141016185  0.6798713969437327  1.0000
  O   O8        1.0  0.15365150787314893  0.7167642913830249  0.8201286030149655  1.0000
  O   O9        1.0  0.3363939691957082  0.9195156806898834  0.4062293596232706  1.0000
  O   O10       1.0  0.6636060308440174  0.4195156807170204  0.09377064020037683  1.0000
  O   O11       1.0  0.6636060315818487  0.08048431925584258  0.5937706402391204  1.0000
  O   O12       1.0  0.33639396891326395  0.5804843192287056  0.9062293594270139  1.0000
  O   O13       1.0  0.07112736342309735  0.9390572077079912  0.4428306984145864  1.0000
  O   O14       1.0  0.9288726366166281  0.4390572077351282  0.05716930140906102  1.0000
  O   O15       1.0  0.9288726363341839  0.06094279223773479  0.5571693012128043  1.0000
  O   O16       1.0  0.07112736314065307  0.5609427922105978  0.9428306982183297  1.0000
  O   O17       1.0  0.00016362421816749356  0.1897746398273111  0.4550294853527132  1.0000
  O   O18       1.0  0.9998363758268205  0.6897746398001742  0.04497051499849843  1.0000
  O   O19       1.0  0.9998363765646516  0.8102253601184148  0.544970515037242  1.0000
  O   O20       1.0  0.0001636239357232087  0.31022536014555185  0.9550294851564565  1.0000
