data_image0
_chemical_formula_structural       C48N4O4Cl20
_chemical_formula_sum              "C48 N4 O4 Cl20"
_cell_length_a       4.113695225317283
_cell_length_b       16.987929335037702
_cell_length_c       18.565389894731293
_cell_angle_alpha    90.0
_cell_angle_beta     91.70226837585396
_cell_angle_gamma    90.0

_space_group_name_H-M_alt    "P 1"
_space_group_IT_number       1

loop_
  _space_group_symop_operation_xyz
  'x, y, z'

loop_
  _atom_site_type_symbol
  _atom_site_label
  _atom_site_symmetry_multiplicity
  _atom_site_fract_x
  _atom_site_fract_y
  _atom_site_fract_z
  _atom_site_occupancy
  C   C1        1.0  0.19091877440994984  0.7668305508624892  0.4191795436480513  1.0000
  C   C2        1.0  0.8090812254042657  0.2668305507164355  0.08082045682384006  1.0000
  C   C3        1.0  0.809081223598364  0.23316944942961815  0.5808204567441644  1.0000
  C   C4        1.0  0.19091877502985968  0.7331694489870185  0.9191795435460105  1.0000
  C   C5        1.0  0.5166148788814883  0.4558456299925982  0.27246293590606707  1.0000
  C   C6        1.0  0.48338512075965473  0.9558456301386519  0.22753706402741414  1.0000
  C   C7        1.0  0.4833851213795646  0.544154369710856  0.7275370639253733  1.0000
  C   C8        1.0  0.5166148795013981  0.044154369564802246  0.7724629358040264  1.0000
  C   C9        1.0  0.3741146199542494  0.46697278659137975  0.33974599603384564  1.0000
  C   C10       1.0  0.6258853796868936  0.9669727867374335  0.1602540038996355  1.0000
  C   C11       1.0  0.625885380479876  0.5330272131120743  0.660254004336005  1.0000
  C   C12       1.0  0.37411461814834773  0.033027212966020666  0.8397459959541701  1.0000
  C   C13       1.0  0.3530904799025845  0.543394403045974  0.3680215352165854  1.0000
  C   C14       1.0  0.6469095197385584  0.043394402899920234  0.13197846471689573  1.0000
  C   C15       1.0  0.6469095203584683  0.4566055966574802  0.6319784646148551  1.0000
  C   C16       1.0  0.353090480695567  0.9566055968035339  0.8680215356529549  1.0000
  C   C17       1.0  0.9606256466388198  0.8290380965355449  0.42694416347809466  1.0000
  C   C18       1.0  0.039374353002323205  0.3290380963894912  0.07305583645538649  1.0000
  C   C19       1.0  0.03937435119642155  0.1709619037565625  0.5730558363757109  1.0000
  C   C20       1.0  0.9606256472587297  0.6709619039026162  0.926944163376054  1.0000
  C   C21       1.0  0.9375340457151592  0.8892565834284756  0.4732408719614868  1.0000
  C   C22       1.0  0.0624659539259837  0.38925658328242185  0.026759127971994433  1.0000
  C   C23       1.0  0.06246595454589352  0.11074341627497858  0.5267591278699536  1.0000
  C   C24       1.0  0.9375340463350691  0.6107434164210322  0.973240871859446  1.0000
  C   C25       1.0  0.17006040363388245  0.8618979477269827  0.518864599711432  1.0000
  C   C26       1.0  0.8299395974201528  0.361897947580929  0.981135400556378  1.0000
  C   C27       1.0  0.8299395968002429  0.13810205256512467  0.4811354006584187  1.0000
  C   C28       1.0  0.17006040284090004  0.6381020527111784  0.01886459927506255  1.0000
  C   C29       1.0  0.4031692937400035  0.8116384485754867  0.542053442286102  1.0000
  C   C30       1.0  0.5968307073140318  0.3116384484294331  0.9579465579817078  1.0000
  C   C31       1.0  0.5968307066941219  0.18836155171662058  0.45794655808374857  1.0000
  C   C32       1.0  0.40316929312009364  0.6883615518626742  0.04205344238814281  1.0000
  C   C33       1.0  0.3879500454304861  0.7643842474207692  0.48474150809892924  1.0000
  C   C34       1.0  0.6120499542106568  0.26438424727471543  0.015258491834551986  1.0000
  C   C35       1.0  0.6120499548305667  0.2356157528713382  0.5152584917325113  1.0000
  C   C36       1.0  0.38795004362458446  0.7356157530173918  0.9847415080192538  1.0000
  C   C37       1.0  0.4763135587667677  0.607311082859358  0.329776494813528  1.0000
  C   C38       1.0  0.5236864408743752  0.10731108271330433  0.1702235051199532  1.0000
  C   C39       1.0  0.5236864392415461  0.3926889174327493  0.6702235055786877  1.0000
  C   C40       1.0  0.4763135593866776  0.892688917578803  0.8297764947114873  1.0000
  C   C41       1.0  0.6128194825422301  0.5972189205587771  0.2622001201410179  1.0000
  C   C42       1.0  0.38718051709891294  0.09721892041272344  0.23779987979246325  1.0000
  C   C43       1.0  0.3871805177188228  0.4027810797333302  0.7377998796904226  1.0000
  C   C44       1.0  0.6128194831621399  0.9027810798793839  0.7622001200389772  1.0000
  C   C45       1.0  0.6331312556915376  0.5206660744554109  0.23345926192535726  1.0000
  C   C46       1.0  0.3668687439496053  0.020666074898010568  0.26654073800812395  1.0000
  C   C47       1.0  0.36686874474258774  0.47933392524804314  0.7665407384444933  1.0000
  C   C48       1.0  0.6331312563114474  0.9793339253940968  0.7334592618233166  1.0000
  N   N1        1.0  0.19171657697769384  0.7186201884429317  0.3628429808981488  1.0000
  N   N2        1.0  0.8082834226634491  0.21862018829687802  0.13715701903533242  1.0000
  N   N3        1.0  0.808283423283359  0.2813798112605224  0.6371570189332917  1.0000
  N   N4        1.0  0.19171657517179216  0.7813798114065761  0.8628429808184731  1.0000
  O   O1        1.0  0.4903050969657733  0.6799089366458309  0.36437827188875804  1.0000
  O   O2        1.0  0.5096949026753697  0.17990893649977718  0.1356217280447231  1.0000
  O   O3        1.0  0.5096949032952794  0.32009106305762325  0.6356217279426825  1.0000
  O   O4        1.0  0.4903050975856832  0.820091063203677  0.8643782717867173  1.0000
  Cl  Cl1       1.0  0.7430355971053281  0.6764911222168382  0.21503701443758638  1.0000
  Cl  Cl2       1.0  0.25696440253581493  0.17649112265943778  0.2849629854958948  1.0000
  Cl  Cl3       1.0  0.2569644031557248  0.3235088774866159  0.784962985393854  1.0000
  Cl  Cl4       1.0  0.7430355952994263  0.8235088776326696  0.7150370143579108  1.0000
  Cl  Cl5       1.0  0.79832226561016  0.5064235876150063  0.15125292203991486  1.0000
  Cl  Cl6       1.0  0.2016777364567946  0.0064235874689525735  0.3487470778712012  1.0000
  Cl  Cl7       1.0  0.20167773465089298  0.4935764126771011  0.8487470777915256  1.0000
  Cl  Cl8       1.0  0.7983222638042583  0.9935764128231547  0.6512529219602392  1.0000
  Cl  Cl9       1.0  0.5501954765684646  0.36313240762525867  0.23841308200966854  1.0000
  Cl  Cl10      1.0  0.4498045254984899  0.863132407182659  0.26158691790144756  1.0000
  Cl  Cl11      1.0  0.4498045236925882  0.6368675926668486  0.7615869178217719  1.0000
  Cl  Cl12      1.0  0.5501954747625628  0.136867592520795  0.7384130819299929  1.0000
  Cl  Cl13      1.0  0.23443816700751094  0.3882665291287758  0.3872885286119893  1.0000
  Cl  Cl14      1.0  0.765561832633632  0.8882665292748294  0.11271147132149187  1.0000
  Cl  Cl15      1.0  0.7655618332535419  0.6117334705746783  0.6127114712194511  1.0000
  Cl  Cl16      1.0  0.23443816780049329  0.11173347042862464  0.8872885290483586  1.0000
  Cl  Cl17      1.0  0.18801476835055958  0.5599283945914112  0.4498396208770119  1.0000
  Cl  Cl18      1.0  0.8119852312905834  0.05992839444535755  0.05016037905646921  1.0000
  Cl  Cl19      1.0  0.8119852320835659  0.44007160511204285  0.5501603794928386  1.0000
  Cl  Cl20      1.0  0.18801476897046945  0.9400716052580965  0.9498396207749712  1.0000
