data_image0
_chemical_formula_structural       H28C52O4Cl8
_chemical_formula_sum              "H28 C52 O4 Cl8"
_cell_length_a       6.855059249502555
_cell_length_b       11.240432081578001
_cell_length_c       13.76951236255857
_cell_angle_alpha    90.0
_cell_angle_beta     90.0
_cell_angle_gamma    103.6321554995397

_space_group_name_H-M_alt    "P 1"
_space_group_IT_number       1

loop_
  _space_group_symop_operation_xyz
  'x, y, z'

loop_
  _atom_site_type_symbol
  _atom_site_label
  _atom_site_symmetry_multiplicity
  _atom_site_fract_x
  _atom_site_fract_y
  _atom_site_fract_z
  _atom_site_occupancy
  H   H1        1.0  0.0596682203158115  0.5623758918977526  0.16462256616753576  1.0000
  H   H2        1.0  0.940331780265609  0.9376241074540573  0.6646225668008707  1.0000
  H   H3        1.0  0.9403317798176681  0.4376241073947317  0.83537743364665  1.0000
  H   H4        1.0  0.059668219867870506  0.06237589183842699  0.33537743373955714  1.0000
  H   H5        1.0  0.8641892688644933  0.3087800485326109  0.9238712123597824  1.0000
  H   H6        1.0  0.13581073117469905  0.1912199516159821  0.42387121245268955  1.0000
  H   H7        1.0  0.13581073162264004  0.6912199516753077  0.07612878745440328  1.0000
  H   H8        1.0  0.8641892693124343  0.8087800485919364  0.5761287873614962  1.0000
  H   H9        1.0  0.28846366907696996  0.1828277865221028  0.0003220302856953216  1.0000
  H   H10       1.0  0.7115363306085685  0.3171722127110558  0.5003220301927882  1.0000
  H   H11       1.0  0.711536329597702  0.8171722127703009  0.9996779695284904  1.0000
  H   H12       1.0  0.288463669524911  0.6828277865814284  0.49967796962139754  1.0000
  H   H13       1.0  0.2934958576595568  0.12319821259578377  0.17299948228212844  1.0000
  H   H14       1.0  0.7065041423796354  0.3768017875528092  0.6729994829154635  1.0000
  H   H15       1.0  0.7065041428275765  0.8768017876121347  0.8270005175320574  1.0000
  H   H16       1.0  0.29349585664869016  0.623198212655029  0.32700051762496446  1.0000
  H   H17       1.0  0.4294967656793676  0.2800462677891985  0.2995473442629298  1.0000
  H   H18       1.0  0.5705032343598246  0.21995373235939444  0.7995473441700227  1.0000
  H   H19       1.0  0.570503233348958  0.7199537324186396  0.700452655551256  1.0000
  H   H20       1.0  0.4294967661273085  0.780046267848524  0.2004526556441631  1.0000
  H   H21       1.0  0.5627922867913738  0.49684042552613145  0.25325379346636734  1.0000
  H   H22       1.0  0.43720771324781843  0.0031595746224615407  0.7532537940997023  1.0000
  H   H23       1.0  0.4372077122369518  0.5031595746817067  0.7467462063478185  1.0000
  H   H24       1.0  0.5627922872393148  0.996840425585457  0.24674620644072556  1.0000
  H   H25       1.0  0.36181949687360654  0.3442606213872503  0.8728167115546884  1.0000
  H   H26       1.0  0.6381805031655857  0.1557393787613427  0.3728167116475955  1.0000
  H   H27       1.0  0.6381805036135267  0.6557393788206682  0.1271832882594974  1.0000
  H   H28       1.0  0.3618194958627398  0.8442606214464954  0.6271832888928324  1.0000
  C   C1        1.0  0.9753323464810278  0.45072110493247425  0.033269865913746616  1.0000
  C   C2        1.0  0.02466765355816445  0.04927889521611866  0.5332698658208395  1.0000
  C   C3        1.0  0.024667654006105454  0.5492788952754443  0.9667301339004392  1.0000
  C   C4        1.0  0.9753323454701612  0.9507211049917196  0.4667301339933463  1.0000
  C   C5        1.0  0.006064987528383108  0.4705205773919631  0.13574416005336945  1.0000
  C   C6        1.0  0.9939350125108092  0.02947942275662983  0.6357441599604623  1.0000
  C   C7        1.0  0.9939350129587501  0.5294794228159554  0.8642558397608162  1.0000
  C   C8        1.0  0.006064986517516469  0.9705205774512085  0.36425583985372345  1.0000
  C   C9        1.0  0.96147963184305  0.3757839007146046  0.19967959849299308  1.0000
  C   C10       1.0  0.038520367842488544  0.124216098518554  0.6996795984000859  1.0000
  C   C11       1.0  0.03852036829042955  0.6242160985778796  0.8003204013211926  1.0000
  C   C12       1.0  0.9614796322909909  0.8757839007739301  0.3003204014140998  1.0000
  C   C13       1.0  0.8791067196828133  0.2482585369161944  0.16944167074094346  1.0000
  C   C14       1.0  0.12089328035637906  0.25174146323239854  0.6694416713742785  1.0000
  C   C15       1.0  0.12089328080432003  0.7517414632917242  0.8305583290732423  1.0000
  C   C16       1.0  0.8791067186719467  0.7482585369754396  0.3305583291661494  1.0000
  C   C17       1.0  0.8434350773100452  0.2329002089829106  0.06429303643368106  1.0000
  C   C18       1.0  0.15656492272914713  0.26709979116568233  0.564293036340774  1.0000
  C   C19       1.0  0.15656492317708817  0.767099791225008  0.9357069641067468  1.0000
  C   C20       1.0  0.8434350777579862  0.7329002090422363  0.43570696419965393  1.0000
  C   C21       1.0  0.8906390188402454  0.32796853388490066  0.0006072655138272643  1.0000
  C   C22       1.0  0.10936098119894683  0.17203146626369228  0.5006072654209202  1.0000
  C   C23       1.0  0.10936098164688782  0.6720314663230179  0.9993927343003585  1.0000
  C   C24       1.0  0.8906390192881865  0.8279685339442262  0.49939273439326565  1.0000
  C   C25       1.0  0.4228441340597743  0.3753577670947301  0.026033419380538735  1.0000
  C   C26       1.0  0.577155865979418  0.12464223305386281  0.5260334192876316  1.0000
  C   C27       1.0  0.5771558649685513  0.624642233113108  0.973966580433647  1.0000
  C   C28       1.0  0.4228441345077153  0.8753577671540558  0.47396658052655416  1.0000
  C   C29       1.0  0.3474136431088609  0.2514132874548902  0.05557298035337343  1.0000
  C   C30       1.0  0.6525863569303314  0.24858671269370275  0.5555729802604663  1.0000
  C   C31       1.0  0.6525863573782725  0.7485867127530283  0.9444270194608123  1.0000
  C   C32       1.0  0.34741364209799414  0.7514132875141353  0.44442701955371944  1.0000
  C   C33       1.0  0.3503630353245673  0.2184479865069371  0.15162784091593273  1.0000
  C   C34       1.0  0.6496369647146251  0.28155201364165583  0.6516278408230256  1.0000
  C   C35       1.0  0.6496369651625661  0.7815520137009815  0.848372158898253  1.0000
  C   C36       1.0  0.3503630357725082  0.7184479865662626  0.34837215899116014  1.0000
  C   C37       1.0  0.4272261749894167  0.30794295613251216  0.22374796135681924  1.0000
  C   C38       1.0  0.5727738250497757  0.19205704401608079  0.723747961263912  1.0000
  C   C39       1.0  0.5727738254977166  0.6920570440754064  0.7762520384573666  1.0000
  C   C40       1.0  0.4272261754373577  0.8079429561918378  0.27625203855027364  1.0000
  C   C41       1.0  0.49972951026468776  0.4284151141908408  0.1986006358101607  1.0000
  C   C42       1.0  0.5002704894208508  0.07158488504231793  0.6986006357172535  1.0000
  C   C43       1.0  0.5002704884099842  0.5715848851015631  0.8013993647302672  1.0000
  C   C44       1.0  0.4997295107126288  0.9284151142501663  0.3013993648231743  1.0000
  C   C45       1.0  0.4998580299879178  0.4663246194693914  0.09960813890036302  1.0000
  C   C46       1.0  0.5001419700512745  0.03367538067920158  0.5996081388074559  1.0000
  C   C47       1.0  0.5001419704992155  0.5336753807385272  0.9003918609138228  1.0000
  C   C48       1.0  0.49985803008220503  0.9663246186132827  0.40039186100672985  1.0000
  C   C49       1.0  0.42501080138487185  0.4115070978961968  0.9284435325946802  1.0000
  C   C50       1.0  0.5749891986543204  0.08849290225239612  0.4284435326875872  1.0000
  C   C51       1.0  0.5749891976434538  0.5884929023116412  0.07155646721950563  1.0000
  C   C52       1.0  0.4250108018328128  0.9115070979555224  0.5715564671265985  1.0000
  O   O1        1.0  0.8425928448807286  0.16180263047447854  0.22768419733765022  1.0000
  O   O2        1.0  0.1574071551584636  0.33819736967411435  0.7276841972447431  1.0000
  O   O3        1.0  0.15740715560640456  0.83819736973344  0.7723158024765355  1.0000
  O   O4        1.0  0.8425928453286697  0.6618026305338042  0.27231580256944266  1.0000
  Cl  Cl1       1.0  0.996268721033674  0.3992976563960967  0.32160542025012934  1.0000
  Cl  Cl2       1.0  0.003731279005518255  0.10070234375249625  0.8216054201572222  1.0000
  Cl  Cl3       1.0  0.003731279453459236  0.6007023438118219  0.6783945802902986  1.0000
  Cl  Cl4       1.0  0.996268721481615  0.8992976564554224  0.17839458038320571  1.0000
  Cl  Cl5       1.0  0.738562202861498  0.08670754477568778  0.025843318240347475  1.0000
  Cl  Cl6       1.0  0.26143779717769433  0.4132924553729052  0.5258433181474403  1.0000
  Cl  Cl7       1.0  0.26143779762563535  0.9132924554322308  0.9741566815738383  1.0000
  Cl  Cl8       1.0  0.7385622018506313  0.5867075448349329  0.4741566816667454  1.0000
