data_image0
_chemical_formula_structural       H12C24O6
_chemical_formula_sum              "H12 C24 O6"
_cell_length_a       7.2045265486425585
_cell_length_b       10.715410205459243
_cell_length_c       6.997747979364642
_cell_angle_alpha    117.79416662382113
_cell_angle_beta     111.57224468243531
_cell_angle_gamma    97.08737901562914

_space_group_name_H-M_alt    "P 1"
_space_group_IT_number       1

loop_
  _space_group_symop_operation_xyz
  'x, y, z'

loop_
  _atom_site_type_symbol
  _atom_site_label
  _atom_site_symmetry_multiplicity
  _atom_site_fract_x
  _atom_site_fract_y
  _atom_site_fract_z
  _atom_site_occupancy
  H   H1        1.0  0.684582151340024  0.08774573183847605  0.96901328281253  1.0000
  H   H2        1.0  0.3154178489933975  0.9122542683635432  0.030986717826314833  1.0000
  H   H3        1.0  0.7008643521294832  0.09877391738024437  0.4461724051581446  1.0000
  H   H4        1.0  0.2991356482039384  0.9012260828217749  0.5538275954807004  1.0000
  H   H5        1.0  0.9443780656544832  0.34107283087109486  0.5865278460907458  1.0000
  H   H6        1.0  0.05562193467196094  0.6589271693230084  0.4134721531108123  1.0000
  H   H7        1.0  0.3049447697715452  0.5015725172798148  0.7277942645234129  1.0000
  H   H8        1.0  0.6950552305618762  0.4984274829222045  0.272205736115432  1.0000
  H   H9        1.0  0.6055597735263154  0.40407070626026736  0.7799316336566817  1.0000
  H   H10       1.0  0.3944402268071061  0.5959292939417519  0.22006836698216306  1.0000
  H   H11       1.0  0.45503093256337124  0.8539887906201241  0.3115185544294396  1.0000
  H   H12       1.0  0.544969067763073  0.14601120957397923  0.6884814447721187  1.0000
  C   C1        1.0  0.8182323224775992  0.0489651856909993  0.9771879829532681  1.0000
  C   C2        1.0  0.18176767784884484  0.951034814503104  0.02281201624829003  1.0000
  C   C3        1.0  0.018352862071741867  0.14288453712439403  0.055427600781347224  1.0000
  C   C4        1.0  0.9816471382616795  0.8571154630776252  0.9445723998574976  1.0000
  C   C5        1.0  0.805444587659963  0.904435640676886  0.921383582758781  1.0000
  C   C6        1.0  0.19455541266648124  0.0955643595172172  0.07861641644277731  1.0000
  C   C7        1.0  0.08863487535876859  0.3000960233477503  0.12488043986748494  1.0000
  C   C8        1.0  0.911365124399653  0.699903975724291  0.8751195597568835  1.0000
  C   C9        1.0  0.6209807154027515  0.7761644411769364  0.8313900459200197  1.0000
  C   C10       1.0  0.37901928492369275  0.22383555901716684  0.16860995328153847  1.0000
  C   C11       1.0  0.8312765958270888  0.05530061680544631  0.47139567437022284  1.0000
  C   C12       1.0  0.1687234045063326  0.9446993833965728  0.528604326268622  1.0000
  C   C13       1.0  0.03501409526539681  0.14906848139194842  0.5544386139676472  1.0000
  C   C14       1.0  0.9649859050610475  0.8509315188021549  0.44556138523391114  1.0000
  C   C15       1.0  0.7915163996077998  0.9078172825334961  0.4164463525490184  1.0000
  C   C16       1.0  0.20848359865885674  0.0921827165401112  0.5835536465146013  1.0000
  C   C17       1.0  0.07530361087666697  0.2983249586294812  0.6080079123335823  1.0000
  C   C18       1.0  0.9246963894567546  0.7016750415725381  0.3919920883052625  1.0000
  C   C19       1.0  0.27647342956557486  0.38745347936318236  0.6868300165804984  1.0000
  C   C20       1.0  0.7235265707678467  0.612546520838837  0.31316998405834645  1.0000
  C   C21       1.0  0.44710458054281454  0.33176172805640963  0.715453532147798  1.0000
  C   C22       1.0  0.552895419790607  0.6682382721456096  0.2845464684910468  1.0000
  C   C23       1.0  0.5864196433387848  0.8119168889530018  0.3349059908955979  1.0000
  C   C24       1.0  0.4135803569876594  0.18808311124110141  0.6650940083059602  1.0000
  O   O1        1.0  0.993835910896781  0.3854140714118102  0.1258123226933829  1.0000
  O   O2        1.0  0.006164089436640513  0.6145859287902091  0.8741876779454621  1.0000
  O   O3        1.0  0.30917142277172277  0.34404769372907607  0.19407359860197507  1.0000
  O   O4        1.0  0.6908285775616988  0.6559523064729432  0.8059264020368697  1.0000
  O   O5        1.0  0.4373541966096207  0.7642363467176053  0.7829592982356612  1.0000
  O   O6        1.0  0.5626458037238008  0.23576365348441405  0.2170407024031837  1.0000
