data_image0
_chemical_formula_structural       H8C16F8S2I4
_chemical_formula_sum              "H8 C16 F8 S2 I4"
_cell_length_a       6.309662859791337
_cell_length_b       8.63162040289824
_cell_length_c       11.107327220612635
_cell_angle_alpha    68.5834673696162
_cell_angle_beta     88.41612412393518
_cell_angle_gamma    81.66652690064288

_space_group_name_H-M_alt    "P 1"
_space_group_IT_number       1

loop_
  _space_group_symop_operation_xyz
  'x, y, z'

loop_
  _atom_site_type_symbol
  _atom_site_label
  _atom_site_symmetry_multiplicity
  _atom_site_fract_x
  _atom_site_fract_y
  _atom_site_fract_z
  _atom_site_occupancy
  H   H1        1.0  0.18604472022246982  0.25063582069494217  0.43802552902660424  1.0000
  H   H2        1.0  0.8139552798960312  0.7493641787175073  0.5619744714555969  1.0000
  H   H3        1.0  0.4049272301257942  0.21871524828197683  0.3412912170867911  1.0000
  H   H4        1.0  0.5950727699345648  0.7812847515859191  0.6587087824280101  1.0000
  H   H5        1.0  0.8028472920228779  0.0645066739039427  0.4544285948814503  1.0000
  H   H6        1.0  0.19715270803748133  0.9354933259639532  0.545571404633351  1.0000
  H   H7        1.0  0.8455196766673996  0.9959473539743754  0.6253640408154479  1.0000
  H   H8        1.0  0.15448032339295953  0.004052645893520668  0.3746359586993533  1.0000
  C   C1        1.0  0.07203973295210021  0.6668870588102767  0.21164767318229094  1.0000
  C   C2        1.0  0.9279602671082589  0.33311294105761935  0.7883523263325103  1.0000
  C   C3        1.0  0.8930472142906865  0.5984677879122234  0.19490982864821405  1.0000
  C   C4        1.0  0.10695278576967253  0.40153221195567235  0.8050901708665873  1.0000
  C   C5        1.0  0.8242430683740724  0.6307556762420856  0.06868593791559363  1.0000
  C   C6        1.0  0.17575693168628664  0.3692443236258103  0.9313140615992077  1.0000
  C   C7        1.0  0.9323311205347943  0.7274548298500529  0.963236207522595  1.0000
  C   C8        1.0  0.06766887799888958  0.2725451695602616  0.03676379296870274  1.0000
  C   C9        1.0  0.11166353950809682  0.7957088422669728  0.979722588488998  1.0000
  C   C10       1.0  0.8883364606104043  0.20429115714547666  0.020277411993203126  1.0000
  C   C11       1.0  0.17916293124279598  0.7642679603580164  0.10602217216640393  1.0000
  C   C12       1.0  0.8208370686463179  0.23573204022680594  0.8939778283126649  1.0000
  C   C13       1.0  0.32926284185192306  0.16310903896024112  0.4345599037954137  1.0000
  C   C14       1.0  0.6707371579790488  0.8368909620800277  0.5654400957162552  1.0000
  C   C15       1.0  0.7307517079164806  0.007495762788364865  0.5487300856846864  1.0000
  C   C16       1.0  0.2692482921438785  0.9925042370795308  0.45126991383011494  1.0000
  F   F1        1.0  0.6523038700166183  0.5668222200237174  0.04652636198195693  1.0000
  F   F2        1.0  0.34769612987249554  0.4331777805611048  0.9534736384971119  1.0000
  F   F3        1.0  0.8605599806983332  0.7526358317288896  0.8425091395535718  1.0000
  F   F4        1.0  0.139440019362026  0.2473641681390061  0.15749085996122944  1.0000
  F   F5        1.0  0.34861567897373735  0.8309100747325795  0.12839823379900325  1.0000
  F   F6        1.0  0.6513843211447636  0.16908992467986997  0.8716017666831978  1.0000
  F   F7        1.0  0.14225639378097132  0.6426380402613491  0.33229871845127446  1.0000
  F   F8        1.0  0.8577436062793877  0.3573619596065468  0.6677012810635268  1.0000
  S   S1        1.0  0.5070423547310594  0.1578590414769065  0.5625182210089908  1.0000
  S   S2        1.0  0.4929576453292997  0.8421409583909893  0.43748177850581044  1.0000
  I   I1        1.0  0.7305979971480758  0.4522334485357971  0.3538573443572508  1.0000
  I   I2        1.0  0.269402002741038  0.5477665520490252  0.646142656121818  1.0000
  I   I3        1.0  0.27546793415758725  0.9393992811134683  0.8188922662321326  1.0000
  I   I4        1.0  0.7245320659609138  0.06060071829898105  0.1811077342500685  1.0000
