data_image0
_chemical_formula_structural       H60C96O4F16P4I8
_chemical_formula_sum              "H60 C96 O4 F16 P4 I8"
_cell_length_a       15.722875905567056
_cell_length_b       8.210139912868286
_cell_length_c       18.276513548347392
_cell_angle_alpha    90.0
_cell_angle_beta     106.37710793640267
_cell_angle_gamma    90.0

_space_group_name_H-M_alt    "P 1"
_space_group_IT_number       1

loop_
  _space_group_symop_operation_xyz
  'x, y, z'

loop_
  _atom_site_type_symbol
  _atom_site_label
  _atom_site_symmetry_multiplicity
  _atom_site_fract_x
  _atom_site_fract_y
  _atom_site_fract_z
  _atom_site_occupancy
  H   H1        1.0  0.07351978352843393  0.13222772468206734  0.7479479504650938  1.0000
  H   H2        1.0  0.9264802167791667  0.6322277251163909  0.7520520495443969  1.0000
  H   H3        1.0  0.9264802164015217  0.8677722749685738  0.25205204937416686  1.0000
  H   H4        1.0  0.07351978315078889  0.3677722745342502  0.24794795029486386  1.0000
  H   H5        1.0  0.9246798819818529  0.15075129816729302  0.7710709185797572  1.0000
  H   H6        1.0  0.07532011832574766  0.6507512973836105  0.7289290814297333  1.0000
  H   H7        1.0  0.07532011813594006  0.8492487027013541  0.2289290818297916  1.0000
  H   H8        1.0  0.9246798816042079  0.34924870226703053  0.2710709184095273  1.0000
  H   H9        1.0  0.8117843771230807  0.3429581237204883  0.6946353870953937  1.0000
  H   H10       1.0  0.18821562318451976  0.8429581229368057  0.8053646129140967  1.0000
  H   H11       1.0  0.18821562280687473  0.6570418771481589  0.3053646127438668  1.0000
  H   H12       1.0  0.8117843767454357  0.15704187671383532  0.19463538692516394  1.0000
  H   H13       1.0  0.8486857052096243  0.5226829330001997  0.598270376498607  1.0000
  H   H14       1.0  0.1513142950979763  0.02268293378388224  0.9017296235108836  1.0000
  H   H15       1.0  0.15131429472033128  0.4773170666504413  0.40172962334065365  1.0000
  H   H16       1.0  0.8486857048319792  0.9773170670847648  0.09827037632837708  1.0000
  H   H17       1.0  0.9982365340140086  0.5103697859560731  0.5784638072971993  1.0000
  H   H18       1.0  0.0017634656578482592  0.010369785521749591  0.9215361927131198  1.0000
  H   H19       1.0  0.0017634659159469531  0.48963021491257397  0.42153619254206137  1.0000
  H   H20       1.0  0.9982365342721072  0.9896302141288916  0.0784638071261408  1.0000
  H   H21       1.0  0.9947856046719904  0.19895592978138876  0.5186480627958766  1.0000
  H   H22       1.0  0.00521439563561023  0.6989559302157125  0.9813519372136137  1.0000
  H   H23       1.0  0.005214395257965284  0.8010440698692524  0.4813519370433841  1.0000
  H   H24       1.0  0.9947856042943453  0.3010440694349288  0.018648062625646743  1.0000
  H   H25       1.0  0.9827439804478079  0.09881969109056961  0.38844551404517064  1.0000
  H   H26       1.0  0.017256019928083923  0.5988196903068872  0.11155448619331973  1.0000
  H   H27       1.0  0.01725601948214777  0.9011803097780775  0.61155448579409  1.0000
  H   H28       1.0  0.982743980189709  0.4011803093437539  0.8884455142162291  1.0000
  H   H29       1.0  0.11910722835766559  0.06097449681891081  0.3462942438942152  1.0000
  H   H30       1.0  0.880892772018226  0.5609744960352283  0.15370575634427508  1.0000
  H   H31       1.0  0.88089277157229  0.9390255040497363  0.6537057559450453  1.0000
  H   H32       1.0  0.11910722809956693  0.43902550361541276  0.8462942440652738  1.0000
  H   H33       1.0  0.26706225533604083  0.12361177163489365  0.434971911115429  1.0000
  H   H34       1.0  0.7329377450398509  0.6236117720692173  0.06502808912306135  1.0000
  H   H35       1.0  0.7329377445939148  0.8763882280157475  0.5650280887238316  1.0000
  H   H36       1.0  0.2670622550779421  0.37638822758142393  0.9349719112864875  1.0000
  H   H37       1.0  0.27933889375148363  0.22545719800691247  0.5655827094050024  1.0000
  H   H38       1.0  0.7206611059203731  0.725457198441236  0.9344172906053164  1.0000
  H   H39       1.0  0.7206611061784719  0.7745428016437287  0.4344172904342581  1.0000
  H   H40       1.0  0.2793388940095824  0.27454280242741114  0.06558270923394406  1.0000
  H   H41       1.0  0.1223973652598448  0.5501494149838446  0.5278744327079022  1.0000
  H   H42       1.0  0.8776026350477559  0.05014941576752706  0.9721255673015885  1.0000
  H   H43       1.0  0.8776026346701107  0.4498505846667965  0.47212556713135845  1.0000
  H   H44       1.0  0.12239736488219977  0.9498505851011201  0.027874432537672304  1.0000
  H   H45       1.0  0.1679396855382064  0.8401524204464139  0.5322706475620647  1.0000
  H   H46       1.0  0.8320603147693941  0.3401524212300964  0.9677293524474258  1.0000
  H   H47       1.0  0.8320603143917491  0.15984757920422718  0.4677293522771959  1.0000
  H   H48       1.0  0.16793968516056137  0.6598475784205446  0.032270647391834835  1.0000
  H   H49       1.0  0.2665399137090346  0.955490308722325  0.6525495120160271  1.0000
  H   H50       1.0  0.733460086598566  0.4554903095060074  0.8474504879934635  1.0000
  H   H51       1.0  0.733460086220921  0.044509690928316165  0.34745048782323357  1.0000
  H   H52       1.0  0.26653991333138954  0.5445096913626397  0.1525495118457972  1.0000
  H   H53       1.0  0.32488835423378676  0.7779958621641182  0.7651267017553491  1.0000
  H   H54       1.0  0.6751116460738138  0.2779958617297946  0.7348732982541414  1.0000
  H   H55       1.0  0.6751116458840062  0.22200413870452895  0.2348732986541997  1.0000
  H   H56       1.0  0.3248883538561418  0.7220041379208465  0.26512670158511925  1.0000
  H   H57       1.0  0.2763996190474282  0.48866916551710227  0.7620560734541743  1.0000
  H   H58       1.0  0.7236003806244287  0.9886691659514258  0.7379439265561447  1.0000
  H   H59       1.0  0.7236003808825273  0.5113308341335389  0.23794392638508632  1.0000
  H   H60       1.0  0.2763996194933644  0.011330833699215235  0.262056073853404  1.0000
  C   C1        1.0  0.04420510443839643  0.31597063479198445  0.6602605346448087  1.0000
  C   C2        1.0  0.9557948952334604  0.815970635226308  0.8397394653655106  1.0000
  C   C3        1.0  0.9557948954915592  0.6840293648586567  0.33973946519445203  1.0000
  C   C4        1.0  0.04420510469649511  0.18402936564233913  0.16026053447375016  1.0000
  C   C5        1.0  0.023593430954613026  0.2163332609248427  0.7151227538126479  1.0000
  C   C6        1.0  0.9764065687172439  0.7163332613591663  0.7848772461976712  1.0000
  C   C7        1.0  0.9764065689753425  0.7836667387257985  0.28487724602661274  1.0000
  C   C8        1.0  0.023593431212711714  0.2836667395094809  0.21512275364158942  1.0000
  C   C9        1.0  0.9400911682721775  0.22701684377859171  0.7276125622259464  1.0000
  C   C10       1.0  0.059908831399679216  0.7270168442129152  0.7723874377843726  1.0000
  C   C11       1.0  0.05990883165777791  0.7729831558720495  0.27238743761331413  1.0000
  C   C12       1.0  0.9400911685302763  0.27298315543772583  0.22761256205488803  1.0000
  C   C13       1.0  0.8767954236003641  0.33491005868125123  0.6847702920982595  1.0000
  C   C14       1.0  0.1232045767072365  0.8349100578975687  0.8152297079112313  1.0000
  C   C15       1.0  0.1232045765174289  0.665089942187396  0.3152297083112895  1.0000
  C   C16       1.0  0.8767954232227191  0.1650899417530724  0.1847702919280295  1.0000
  C   C17       1.0  0.8974578639631101  0.435788863280167  0.6305405909493942  1.0000
  C   C18       1.0  0.10254213570874676  0.9357888624964845  0.8694594090609249  1.0000
  C   C19       1.0  0.1025421359668454  0.564211136370474  0.36945940888986634  1.0000
  C   C20       1.0  0.8974578642212088  0.06421113715415651  0.1305405907783358  1.0000
  C   C21       1.0  0.9812508968789646  0.4276424186751039  0.6188748626378678  1.0000
  C   C22       1.0  0.018749103428635967  0.9276424178914214  0.8811251373716227  1.0000
  C   C23       1.0  0.018749103238828398  0.5723575809755374  0.38112513777168094  1.0000
  C   C24       1.0  0.9812508965013196  0.07235758175921972  0.11887486246763798  1.0000
  C   C25       1.0  0.13773160382645802  0.2213511693207067  0.5503188223535492  1.0000
  C   C26       1.0  0.8622683964811427  0.7213511697550303  0.9496811776559414  1.0000
  C   C27       1.0  0.8622683961034976  0.7786488303299344  0.44968117748571146  1.0000
  C   C28       1.0  0.137731603448813  0.2786488311136169  0.050318822183319345  1.0000
  C   C29       1.0  0.05453031052112598  0.18403730825972348  0.5003803351756853  1.0000
  C   C30       1.0  0.9454696891507309  0.6840373086940471  0.9996196648346338  1.0000
  C   C31       1.0  0.9454696894088296  0.8159626913909176  0.4996196646635754  1.0000
  C   C32       1.0  0.054530310779224656  0.315962690956594  0.0003803350046267878  1.0000
  C   C33       1.0  0.04790004810479631  0.12643986594831785  0.427039203485311  1.0000
  C   C34       1.0  0.9520999522710955  0.6264398651646355  0.07296079675317935  1.0000
  C   C35       1.0  0.9520999518251592  0.8735601349203294  0.5729607963539495  1.0000
  C   C36       1.0  0.0479000478466976  0.3735601344860057  0.9270392036563694  1.0000
  C   C37       1.0  0.1242963444144444  0.10495745129134494  0.40357439892365066  1.0000
  C   C38       1.0  0.8757036551378662  0.6049574505076625  0.0964256007453801  1.0000
  C   C39       1.0  0.8757036555155112  0.8950425495773022  0.59642560091561  1.0000
  C   C40       1.0  0.12429634479208944  0.39504254914297865  0.9035743990938806  1.0000
  C   C41       1.0  0.20752018213421644  0.1398420955287829  0.45351730858792516  1.0000
  C   C42       1.0  0.7924798182416751  0.6398420959631064  0.04648269165056518  1.0000
  C   C43       1.0  0.7924798186193203  0.8601579041218582  0.5464826918207951  1.0000
  C   C44       1.0  0.2075201816882803  0.36015790490554067  0.9535173081886955  1.0000
  C   C45       1.0  0.21444991652882855  0.19790349339276442  0.5265881815774563  1.0000
  C   C46       1.0  0.7855500831430283  0.6979034938270879  0.973411818432863  1.0000
  C   C47       1.0  0.7855500835889645  0.8020965062578768  0.4734118188320925  1.0000
  C   C48       1.0  0.21444991678692724  0.30209650704155916  0.026588181406397886  1.0000
  C   C49       1.0  0.19387871443084584  0.5029836511710918  0.6454449081015972  1.0000
  C   C50       1.0  0.8061212858767547  0.0029836507367682653  0.8545550919078932  1.0000
  C   C51       1.0  0.8061212854991097  0.4970163496975553  0.3545550917376635  1.0000
  C   C52       1.0  0.19387871424103828  0.9970163489138728  0.1454449085016555  1.0000
  C   C53       1.0  0.16457662205028217  0.6016199470922758  0.5805631404443761  1.0000
  C   C54       1.0  0.8354233776215748  0.10161994665795226  0.919436859565943  1.0000
  C   C55       1.0  0.8354233778796734  0.3983800525583653  0.4194368593948847  1.0000
  C   C56       1.0  0.1645766223083808  0.8983800529926889  0.08056314027331751  1.0000
  C   C57       1.0  0.19055548545189657  0.7641340557627897  0.5829900554733736  1.0000
  C   C58       1.0  0.8094445142199602  0.2641340553284662  0.9170099445369454  1.0000
  C   C59       1.0  0.8094445146658964  0.23586594510585743  0.41700994493617527  1.0000
  C   C60       1.0  0.19055548570999525  0.735865944322175  0.08299005530231512  1.0000
  C   C61       1.0  0.24709102210029366  0.8280513696659905  0.6499091542762148  1.0000
  C   C62       1.0  0.7529089782073068  0.32805137044967303  0.8500908457332756  1.0000
  C   C63       1.0  0.7529089778296618  0.17194862998465058  0.35009084556304587  1.0000
  C   C64       1.0  0.24709102172264863  0.6719486304189741  0.1499091541059849  1.0000
  C   C65       1.0  0.27887262352813236  0.7286438043063802  0.7137465274825905  1.0000
  C   C66       1.0  0.7211273767794683  0.22864380509006263  0.7862534725269001  1.0000
  C   C67       1.0  0.7211273765896608  0.2713561953442609  0.2862534729269584  1.0000
  C   C68       1.0  0.2788726231504873  0.7713561957785845  0.21374652731236057  1.0000
  C   C69       1.0  0.25202924420223816  0.5665288581391584  0.7121750553341075  1.0000
  C   C70       1.0  0.7479707554696187  0.06652885770483494  0.7878249446762114  1.0000
  C   C71       1.0  0.7479707557277173  0.4334711427294886  0.2878249445051531  1.0000
  C   C72       1.0  0.25202924446033687  0.9334711419458062  0.21217505516304908  1.0000
  C   C73       1.0  0.43704420865009524  0.4449130427454387  0.4325361524422846  1.0000
  C   C74       1.0  0.5629557909022151  0.9449130431797623  0.06746384722674612  1.0000
  C   C75       1.0  0.5629557912798603  0.5550869569052024  0.567463847396976  1.0000
  C   C76       1.0  0.43704420902774027  0.05508695768888485  0.9325361526125143  1.0000
  C   C77       1.0  0.4112276417539046  0.49056464965807395  0.49672483944865886  1.0000
  C   C78       1.0  0.5887723586219872  0.9905646500923975  0.0032751607898314715  1.0000
  C   C79       1.0  0.5887723581760509  0.5094353499925672  0.5032751603906017  1.0000
  C   C80       1.0  0.4112276414958059  0.009435350776249648  0.9967248396197174  1.0000
  C   C81       1.0  0.4730639698321918  0.5439447046450894  0.5631063494556222  1.0000
  C   C82       1.0  0.5269360304754088  0.043944704210765885  0.9368936505538683  1.0000
  C   C83       1.0  0.5269360300977638  0.45605529622355767  0.4368936503836384  1.0000
  C   C84       1.0  0.4730639694545467  0.9560552954398752  0.0631063492853923  1.0000
  C   C85       1.0  0.5104296277459678  0.5311125165072391  0.9263134924777593  1.0000
  C   C86       1.0  0.4895703725616327  0.03111251607291555  0.5736865075317311  1.0000
  C   C87       1.0  0.4895703721839877  0.46888748314340195  0.0736865073615013  1.0000
  C   C88       1.0  0.5104296280040664  0.9688874835777255  0.42631349230670085  1.0000
  C   C89       1.0  0.43626646531416047  0.586647417841303  0.9466356680532954  1.0000
  C   C90       1.0  0.5637335349934401  0.08664741740697943  0.5533643319561952  1.0000
  C   C91       1.0  0.5637335346157951  0.4133525818093381  0.053364331785965245  1.0000
  C   C92       1.0  0.4362664651243529  0.9133525822436617  0.44663566845335373  1.0000
  C   C93       1.0  0.5737160458750566  0.4428485517404275  0.9810565405886379  1.0000
  C   C94       1.0  0.42628395443254385  0.942848552174751  0.5189434594208526  1.0000
  C   C95       1.0  0.4262839542427363  0.5571514479102136  0.018943459820910936  1.0000
  C   C96       1.0  0.5737160454974117  0.05715144869389605  0.481056540418408  1.0000
  O   O1        1.0  0.21354880207015078  0.19229045384787555  0.7060711837371663  1.0000
  O   O2        1.0  0.7864511976017061  0.692290453064193  0.793928816273153  1.0000
  O   O3        1.0  0.7864511978598048  0.8077095458027655  0.2939288161020944  1.0000
  O   O4        1.0  0.21354880232824947  0.307709546586448  0.2060711835661077  1.0000
  F   F1        1.0  0.3247351201924107  0.4850297927028623  0.49541418043917107  1.0000
  F   F2        1.0  0.6752648795477373  0.9850297931371857  0.004585819800147838  1.0000
  F   F3        1.0  0.6752648797375449  0.5149702069477788  0.5045858194000895  1.0000
  F   F4        1.0  0.3247351205700557  0.014970207731461323  0.9954141806094011  1.0000
  F   F5        1.0  0.4440164958316167  0.5853747111504436  0.6237105736155065  1.0000
  F   F6        1.0  0.5559835044759839  0.08537471071611993  0.8762894263939839  1.0000
  F   F7        1.0  0.5559835042861764  0.41462528850019764  0.37628942679404226  1.0000
  F   F8        1.0  0.44401649545397165  0.9146252889345212  0.12371057344527672  1.0000
  F   F9        1.0  0.3717910103447432  0.67152530754788  0.8963159163213231  1.0000
  F   F10       1.0  0.6282089897750199  0.17152530711355643  0.6036840831178792  1.0000
  F   F11       1.0  0.6282089895852124  0.3284746921027611  0.10368408351793758  1.0000
  F   F12       1.0  0.3717910107906793  0.8284746925370846  0.3963159167205528  1.0000
  F   F13       1.0  0.6462985791603001  0.3834539244654778  0.9646931976271435  1.0000
  F   F14       1.0  0.35370142114730047  0.8834539236817953  0.5353068023823472  1.0000
  F   F15       1.0  0.3537014207696554  0.6165460764031694  0.035306802212117225  1.0000
  F   F16       1.0  0.6462985789704926  0.11654607596884577  0.4646931980272017  1.0000
  P   P1        1.0  0.15323338341234155  0.2980224936441048  0.6461678271453891  1.0000
  P   P2        1.0  0.8467666162595152  0.7980224940784284  0.85383217286493  1.0000
  P   P3        1.0  0.8467666167054514  0.7019775060065362  0.3538321732641597  1.0000
  P   P4        1.0  0.15323338367044023  0.2019775055722127  0.14616782697433064  1.0000
  I   I1        1.0  0.3426315431736461  0.36930827150066414  0.3324430597841596  1.0000
  I   I2        1.0  0.6573684565665019  0.8693082719349877  0.1675569404551593  1.0000
  I   I3        1.0  0.6573684569441469  0.630691728149977  0.6675569406253892  1.0000
  I   I4        1.0  0.34263154336345364  0.13069172771565335  0.8324430593841012  1.0000
  I   I5        1.0  0.5284410918248447  0.5804456197549887  0.819733087113391  1.0000
  I   I6        1.0  0.4715589078470122  0.08044561932066502  0.680266912896928  1.0000
  I   I7        1.0  0.47155890829294833  0.41955438111365856  0.18026691329615777  1.0000
  I   I8        1.0  0.5284410920829433  0.919554380329976  0.3197330869423326  1.0000
