data_image0
_chemical_formula_structural       H26C44N6O12
_chemical_formula_sum              "H26 C44 N6 O12"
_cell_length_a       8.77608663938932
_cell_length_b       16.056636794934214
_cell_length_c       6.377775514914024
_cell_angle_alpha    92.45970169632372
_cell_angle_beta     101.81828780972894
_cell_angle_gamma    98.95625873178531

_space_group_name_H-M_alt    "P 1"
_space_group_IT_number       1

loop_
  _space_group_symop_operation_xyz
  'x, y, z'

loop_
  _atom_site_type_symbol
  _atom_site_label
  _atom_site_symmetry_multiplicity
  _atom_site_fract_x
  _atom_site_fract_y
  _atom_site_fract_z
  _atom_site_occupancy
  H   H1        1.0  0.42215175363555757  0.15892243142378495  0.28366175070225164  1.0000
  H   H2        1.0  0.57784824686135  0.8410775684589974  0.7163382493988859  1.0000
  H   H3        1.0  0.4062614047951767  0.4264698764991461  0.31420914435136515  1.0000
  H   H4        1.0  0.5937385957017308  0.5735301233836364  0.6857908557497723  1.0000
  H   H5        1.0  0.9722835147607093  0.2461249454080065  0.17050720289642673  1.0000
  H   H6        1.0  0.027716484572298677  0.7538750544755294  0.8294927968753837  1.0000
  H   H7        1.0  0.4630745201502526  0.5359587685267241  0.1462904746482754  1.0000
  H   H8        1.0  0.5369254805466595  0.4640412319884325  0.8537095255826591  1.0000
  H   H9        1.0  0.12475077661942359  0.8209932174675709  0.3810523146238998  1.0000
  H   H10       1.0  0.8752492227135845  0.1790067824159648  0.6189476851479107  1.0000
  H   H11       1.0  0.9765884007138158  0.9397273618840332  0.3432510161559794  1.0000
  H   H12       1.0  0.023411599783091677  0.0602726379987491  0.6567489839451579  1.0000
  H   H13       1.0  0.29689489812640407  0.6456186523860231  0.10699813081459533  1.0000
  H   H14       1.0  0.7031051023705033  0.3543813474967592  0.8930018692865421  1.0000
  H   H15       1.0  0.8118635889845272  0.5145922650757394  0.24882979516910583  1.0000
  H   H16       1.0  0.18813641151238022  0.48540773480704297  0.7511702049320316  1.0000
  H   H17       1.0  0.07325648819176435  0.6279265861546672  0.3442968478647703  1.0000
  H   H18       1.0  0.9267435111412438  0.3720734137288686  0.6557031519070402  1.0000
  H   H19       1.0  0.7683097227598162  0.999093817298197  0.30210197303359465  1.0000
  H   H20       1.0  0.2316902777370912  0.0009061825845854013  0.6978980270675427  1.0000
  H   H21       1.0  0.5074485367327624  0.019745116593621343  0.2432022629365716  1.0000
  H   H22       1.0  0.49255146260024557  0.9802548832899145  0.7567977368352389  1.0000
  H   H23       1.0  0.2750572806298971  0.9196279851906528  0.1412647171408218  1.0000
  H   H24       1.0  0.7249427198670103  0.08037201469212964  0.8587352829603156  1.0000
  H   H25       1.0  0.2475541529935459  0.773105071159803  0.10538050145302207  1.0000
  H   H26       1.0  0.7524458463394621  0.2268949287237328  0.8946194983187885  1.0000
  C   C1        1.0  0.19030377389623987  0.1946302207915487  0.22215076650401927  1.0000
  C   C2        1.0  0.8096962268006722  0.8053697797236077  0.7778492337269153  1.0000
  C   C3        1.0  0.35457423053334725  0.2103633516447086  0.26942013682717225  1.0000
  C   C4        1.0  0.6454257689996654  0.7896366488712013  0.7305798630744352  1.0000
  C   C5        1.0  0.42951577251953016  0.29420436054123095  0.3010919391735933  1.0000
  C   C6        1.0  0.5704842270134826  0.705795639974679  0.6989080607280143  1.0000
  C   C7        1.0  0.3455493152644259  0.36145084078735595  0.28548954587630215  1.0000
  C   C8        1.0  0.6544506852324815  0.6385491590954264  0.7145104542248353  1.0000
  C   C9        1.0  0.1815137052850519  0.34222062290764954  0.23404962110967134  1.0000
  C   C10       1.0  0.8184862940479561  0.6577793769758864  0.7659503786621391  1.0000
  C   C11       1.0  0.1004764293270081  0.25949588364932746  0.20389854658951143  1.0000
  C   C12       1.0  0.8995235711698993  0.740504116233455  0.7961014535116261  1.0000
  C   C13       1.0  0.5191449336848561  0.6021631460884258  0.17080535510654885  1.0000
  C   C14       1.0  0.48085506681205137  0.3978368537943567  0.8291946449945886  1.0000
  C   C15       1.0  0.682735005340825  0.6264178879831519  0.22193148077900388  1.0000
  C   C16       1.0  0.31726499399218305  0.37358211190038393  0.7780685189928066  1.0000
  C   C17       1.0  0.7439648177190028  0.7150963385941236  0.25003832663924436  1.0000
  C   C18       1.0  0.2560351816123205  0.284903661287354  0.7499616746998048  1.0000
  C   C19       1.0  0.912597514112587  0.7258410613301479  0.30270222933660274  1.0000
  C   C20       1.0  0.08740248638432031  0.27415893855263435  0.6972977707645347  1.0000
  C   C21       1.0  0.9961622898292289  0.8082423603929906  0.3369818844128662  1.0000
  C   C22       1.0  0.0038377095037791208  0.19175763949054514  0.6630181153589443  1.0000
  C   C23       1.0  0.9111041174487581  0.8752582652830947  0.31805520019859984  1.0000
  C   C24       1.0  0.08889588188425002  0.1247417346004411  0.6819447995732106  1.0000
  C   C25       1.0  0.7438082383888105  0.8654660299491785  0.26994521838729724  1.0000
  C   C26       1.0  0.25619176210809697  0.13453396993360373  0.7300547817138401  1.0000
  C   C27       1.0  0.6545342601656418  0.7800134973772066  0.23253567477737244  1.0000
  C   C28       1.0  0.3454657391656816  0.21998650250427113  0.7674643265616767  1.0000
  C   C29       1.0  0.4843212004666189  0.7531194657909476  0.17879466177412162  1.0000
  C   C30       1.0  0.5156788000302884  0.24688053409183483  0.8212053383270157  1.0000
  C   C31       1.0  0.42475750871872664  0.6650965201992297  0.14948082324332548  1.0000
  C   C32       1.0  0.5752424919781853  0.33490348031592676  0.8505191769876089  1.0000
  C   C33       1.0  0.8169610997936942  0.5827226224129293  0.257589488139973  1.0000
  C   C34       1.0  0.18303890070321321  0.4172773774698532  0.7424105119611644  1.0000
  C   C35       1.0  0.9541225686904642  0.6421135771127072  0.3065876903702902  1.0000
  C   C36       1.0  0.04587743180644343  0.35788642277007515  0.6934123097308472  1.0000
  C   C37       1.0  0.679302664184775  0.9418460146565725  0.2691507262497665  1.0000
  C   C38       1.0  0.32069733514823295  0.05815398522696332  0.730849273522044  1.0000
  C   C39       1.0  0.524942501773102  0.9541091672935901  0.2314050310369927  1.0000
  C   C40       1.0  0.47505749755990617  0.04589083258994576  0.7685949687348178  1.0000
  C   C41       1.0  0.38457345725608494  0.893781381904228  0.17334928711445946  1.0000
  C   C42       1.0  0.6154265432408225  0.10621861797855435  0.826650712986678  1.0000
  C   C43       1.0  0.36853040490460437  0.8073171948012431  0.1504549352509348  1.0000
  C   C44       1.0  0.6314695955923032  0.19268280508153926  0.8495450648502025  1.0000
  N   N1        1.0  0.1095203718036661  0.10668812651203807  0.1963490548742608  1.0000
  N   N2        1.0  0.890479627529342  0.8933118733714978  0.8036509448975496  1.0000
  N   N3        1.0  0.6027078491537342  0.3124010577902146  0.3549328804242933  1.0000
  N   N4        1.0  0.3972921513431733  0.6875989420925678  0.6450671196768442  1.0000
  N   N5        1.0  0.09016780532161187  0.41220074350316344  0.21119518061601242  1.0000
  N   N6        1.0  0.9098321951752956  0.5877992563796189  0.788804819485125  1.0000
  O   O1        1.0  0.962919850481889  0.09375444057127454  0.15578255685503287  1.0000
  O   O2        1.0  0.037080148851119016  0.9062455593122614  0.8442174429167777  1.0000
  O   O3        1.0  0.19257436325595292  0.050433888293347454  0.21992447050187183  1.0000
  O   O4        1.0  0.8074256372409545  0.9495661115894348  0.7800755295992656  1.0000
  O   O5        1.0  0.6745183780678836  0.25129748100884164  0.365635486935608  1.0000
  O   O6        1.0  0.3254816226290284  0.7487025195063148  0.6343645132953266  1.0000
  O   O7        1.0  0.6663245506157933  0.3876644537492659  0.3875732819603765  1.0000
  O   O8        1.0  0.33367544871721466  0.61233554613427  0.612426717811434  1.0000
  O   O9        1.0  0.1652135270071171  0.485165324234721  0.24043527646030743  1.0000
  O   O10       1.0  0.8347864725258956  0.5148346762811891  0.7595647234413001  1.0000
  O   O11       1.0  0.9443972470851979  0.3932887079263424  0.16349432695382146  1.0000
  O   O12       1.0  0.055602752247810035  0.6067112919571934  0.836505672817989  1.0000
