data_image0
_chemical_formula_structural       H64C92N8O12S4Cl12
_chemical_formula_sum              "H64 C92 N8 O12 S4 Cl12"
_cell_length_a       14.085009037884477
_cell_length_b       13.993278211055172
_cell_length_c       14.372022903639767
_cell_angle_alpha    119.40745357668676
_cell_angle_beta     92.33732011391835
_cell_angle_gamma    113.43672428952806

_space_group_name_H-M_alt    "P 1"
_space_group_IT_number       1

loop_
  _space_group_symop_operation_xyz
  'x, y, z'

loop_
  _atom_site_type_symbol
  _atom_site_label
  _atom_site_symmetry_multiplicity
  _atom_site_fract_x
  _atom_site_fract_y
  _atom_site_fract_z
  _atom_site_occupancy
  H   H1        1.0  0.38192894735074506  0.5396786179013706  0.026288474109259094  1.0000
  H   H2        1.0  0.6180710530124272  0.4603213825934692  0.9737115256775078  1.0000
  H   H3        1.0  0.4175307768040125  0.4656074557634599  0.14460771386339746  1.0000
  H   H4        1.0  0.5824692234916377  0.5343925444654442  0.8553922867565125  1.0000
  H   H5        1.0  0.25712213851504867  0.32909090044827927  0.17426307695038495  1.0000
  H   H6        1.0  0.7428778617806016  0.6709090997806247  0.8257369236695249  1.0000
  H   H7        1.0  0.07239492513328245  0.2697618339580531  0.08175959481069645  1.0000
  H   H8        1.0  0.927605074454137  0.7302381662747538  0.9182404058137881  1.0000
  H   H9        1.0  0.9157390775657828  0.23285267607304364  0.008510091890150579  1.0000
  H   H10       1.0  0.0842609224878125  0.7671473236411517  0.9914899078937681  1.0000
  H   H11       1.0  0.8168418671794981  0.4405259871481117  0.6146900334397911  1.0000
  H   H12       1.0  0.183158132874097  0.5594740125660836  0.3853099663441276  1.0000
  H   H13       1.0  0.6146897543536883  0.30408794556045815  0.54165624044098  1.0000
  H   H14       1.0  0.38531024499167604  0.6959120541576399  0.4583437593475131  1.0000
  H   H15       1.0  0.5277787000498353  0.1759490269306985  0.6186509563762783  1.0000
  H   H16       1.0  0.472221299537584  0.8240509733021083  0.381349044248206  1.0000
  H   H17       1.0  0.6445015861252748  0.18144414173855078  0.7587607301997091  1.0000
  H   H18       1.0  0.3554984141703755  0.8185558584903534  0.24123927042020094  1.0000
  H   H19       1.0  0.751464483108432  0.20429899328845613  0.8889781277673071  1.0000
  H   H20       1.0  0.2485355165465094  0.7957010072102864  0.11102187202403425  1.0000
  H   H21       1.0  0.47208334322849305  0.2963000314846784  0.7806273340388609  1.0000
  H   H22       1.0  0.5279166568251022  0.703699968229517  0.2193726657450578  1.0000
  H   H23       1.0  0.5063665819803245  0.23150389677975552  0.9080721372318692  1.0000
  H   H24       1.0  0.4936334183153258  0.7684961034491485  0.0919278633880407  1.0000
  H   H25       1.0  0.3474221477124627  0.12159030152916575  0.9578971428098717  1.0000
  H   H26       1.0  0.6525778516329015  0.8784096981889322  0.04210285697862132  1.0000
  H   H27       1.0  0.1650312369014367  0.07789763410143258  0.8763603931375096  1.0000
  H   H28       1.0  0.8349687631521586  0.922102365612763  0.12363960664640924  1.0000
  H   H29       1.0  0.010813976075429993  0.05443683457256888  0.8113614094323717  1.0000
  H   H30       1.0  0.9891860232699343  0.9455631651455291  0.18863859035612135  1.0000
  H   H31       1.0  0.9054880321674555  0.19777760556652002  0.3661059765015003  1.0000
  H   H32       1.0  0.09451196741996386  0.8022223946662868  0.633894024122984  1.0000
  H   H33       1.0  0.7045422443969983  0.09886231601858254  0.32550686482789365  1.0000
  H   H34       1.0  0.29545775565659704  0.9011376836956129  0.6744931349560251  1.0000
  H   H35       1.0  0.6198582302648936  0.006107245476801835  0.43318205372353913  1.0000
  H   H36       1.0  0.3801417700307566  0.9938927547521021  0.5668179468963708  1.0000
  H   H37       1.0  0.7380405968182739  0.008445866375962676  0.567722012848908  1.0000
  H   H38       1.0  0.2619594025270904  0.9915541333421355  0.4322779869395852  1.0000
  H   H39       1.0  0.8477058386682835  0.029030661708863724  0.6936871771380354  1.0000
  H   H40       1.0  0.1522941616948888  0.9709693387859761  0.3063128226487315  1.0000
  H   H41       1.0  0.6952627383644047  0.006904114729067644  0.8994673788537466  1.0000
  H   H42       1.0  0.30473726168919035  0.9930958849851277  0.10053262093017207  1.0000
  H   H43       1.0  0.7275928728027525  0.7223467509035771  0.5348312738775022  1.0000
  H   H44       1.0  0.2724071265426119  0.27765324881452097  0.46516872591099095  1.0000
  H   H45       1.0  0.5928485171631634  0.7307488384060404  0.4552196758986435  1.0000
  H   H46       1.0  0.407151482424256  0.2692511618267664  0.5447803247258408  1.0000
  H   H47       1.0  0.8652693775724385  0.7367470347496118  0.6352206918586178  1.0000
  H   H48       1.0  0.13473062272321168  0.26325296547929233  0.36477930876129205  1.0000
  H   H49       1.0  0.25611654420516194  0.40805569919345763  0.803313345768773  1.0000
  H   H50       1.0  0.7438834553822574  0.5919443010393491  0.19668665485571127  1.0000
  H   H51       1.0  0.5391734889433933  0.7528648907698442  0.7940245390021693  1.0000
  H   H52       1.0  0.460826510401971  0.24713510894825377  0.20597546078632376  1.0000
  H   H53       1.0  0.3265109234203868  0.2851557843994421  0.6899516795869398  1.0000
  H   H54       1.0  0.6734890766332084  0.7148442153147532  0.31004832019697887  1.0000
  H   H55       1.0  0.24133099828539617  0.5582887333507084  0.9560105774682554  1.0000
  H   H56       1.0  0.7586690013695452  0.44171126714803416  0.043989422323086  1.0000
  H   H57       1.0  0.30992511497587116  0.7434025169550919  0.6804372679798709  1.0000
  H   H58       1.0  0.6900748850777241  0.25659748275910343  0.3195627318040477  1.0000
  H   H59       1.0  0.9987887381301214  0.37759218389002264  0.6370046739086866  1.0000
  H   H60       1.0  0.0012112619234739854  0.6224078158241729  0.36299532587523214  1.0000
  H   H61       1.0  0.051113858593381314  0.2547377710795422  0.5002936828928323  1.0000
  H   H62       1.0  0.9488861417022689  0.7452622291493618  0.49970631772707763  1.0000
  H   H63       1.0  0.955533644069894  0.5134701764282601  0.7674758307423752  1.0000
  H   H64       1.0  0.04446635622575627  0.48652982380064397  0.23252416987753463  1.0000
  C   C1        1.0  0.021952531707726035  0.3415021117262927  0.9504188365551233  1.0000
  C   C2        1.0  0.9780474683458691  0.6584978879879028  0.049581163228795494  1.0000
  C   C3        1.0  0.12925720123304427  0.3748543772190548  0.005699364886225643  1.0000
  C   C4        1.0  0.870742798820551  0.6251456224951406  0.9943006348976932  1.0000
  C   C5        1.0  0.3154412285563841  0.4798986250861487  0.04131227565978568  1.0000
  C   C6        1.0  0.6845587718067881  0.5201013754086911  0.9586877241269812  1.0000
  C   C7        1.0  0.3351237698424932  0.4387960675299503  0.10686037419510827  1.0000
  C   C8        1.0  0.664876230453157  0.5612039326989537  0.8931396264248017  1.0000
  C   C9        1.0  0.2461440492778424  0.3624003466406609  0.1223615301073412  1.0000
  C   C10       1.0  0.7538559503770988  0.6375996538580816  0.877638469684  1.0000
  C   C11       1.0  0.14264112932125786  0.32906566328251796  0.07065567246487212  1.0000
  C   C12       1.0  0.8573588709743923  0.6709343369463862  0.9293443281550379  1.0000
  C   C13       1.0  0.9233457860547589  0.26983372901409003  0.9565646449417651  1.0000
  C   C14       1.0  0.07665421329060544  0.730166270704008  0.04343535484672796  1.0000
  C   C15       1.0  0.864584364051189  0.3140445641387762  0.835911800684774  1.0000
  C   C16       1.0  0.1354156360024062  0.6859554355754193  0.16408819909914485  1.0000
  C   C17       1.0  0.7932718748251056  0.3131453999224389  0.7593318748940832  1.0000
  C   C18       1.0  0.2067281255380665  0.6868546005724009  0.24066812489268377  1.0000
  C   C19       1.0  0.7751867618247977  0.38016979192668254  0.6433281918698038  1.0000
  C   C20       1.0  0.22481323783014354  0.61983020857206  0.3566718079215374  1.0000
  C   C21       1.0  0.6632402510961185  0.30574121445413216  0.6036345963621748  1.0000
  C   C22       1.0  0.3367597484913008  0.6942587857786746  0.39636540426230954  1.0000
  C   C23       1.0  0.6154410921772985  0.23452232106448695  0.6470996894899759  1.0000
  C   C24       1.0  0.38455890811835175  0.7654776791644173  0.35290031112993414  1.0000
  C   C25       1.0  0.6800834121441727  0.23796594296508092  0.7254087903469119  1.0000
  C   C26       1.0  0.31991658790942257  0.7620340567491144  0.2745912094370068  1.0000
  C   C27       1.0  0.8346157371329642  0.25435677448894733  0.8918690905633214  1.0000
  C   C28       1.0  0.165384262920631  0.745643225225248  0.10813090922059723  1.0000
  C   C29       1.0  0.11507958079290018  0.13698122888372688  0.7334699933045294  1.0000
  C   C30       1.0  0.8849204192606951  0.8630187708304686  0.26653000647938924  1.0000
  C   C31       1.0  0.22130750700998314  0.1636343610878088  0.7843721052407537  1.0000
  C   C32       1.0  0.7786924930436121  0.8363656386263867  0.21562789454316492  1.0000
  C   C33       1.0  0.40629458442261523  0.2470261094794333  0.8041160365074346  1.0000
  C   C34       1.0  0.5937054158730352  0.752973890749471  0.19588396411247552  1.0000
  C   C35       1.0  0.42519299704975677  0.21201015261159353  0.8752843957751448  1.0000
  C   C36       1.0  0.5748070030038385  0.787989847102602  0.124715604008774  1.0000
  C   C37       1.0  0.33671588075741776  0.15097258172881522  0.9024705641919274  1.0000
  C   C38       1.0  0.6632841188300014  0.8490274185039914  0.09752943643255697  1.0000
  C   C39       1.0  0.23468035104227036  0.12661761173210256  0.8569703500143931  1.0000
  C   C40       1.0  0.7653196490113249  0.8733823879820928  0.14302964976952556  1.0000
  C   C41       1.0  0.018038316698072696  0.08251921564770814  0.7524979185527566  1.0000
  C   C42       1.0  0.9819616826472916  0.9174807840703898  0.2475020812357365  1.0000
  C   C43       1.0  0.9576594978020395  0.1101258577475194  0.6187271871540556  1.0000
  C   C44       1.0  0.04234050225155579  0.889874141966676  0.3812728126298631  1.0000
  C   C45       1.0  0.8858584753940193  0.1063845946571826  0.5399221095876653  1.0000
  C   C46       1.0  0.11414152419339996  0.8936154055756241  0.460077891036819  1.0000
  C   C47       1.0  0.8651058287816311  0.15429187952356918  0.40893378695751503  1.0000
  C   C48       1.0  0.13489417127196413  0.8457081201906262  0.5910662128264037  1.0000
  C   C49       1.0  0.7532056631614095  0.10019159348961254  0.38726610136914885  1.0000
  C   C50       1.0  0.24679433689218583  0.8998084062245829  0.6127338984147699  1.0000
  C   C51       1.0  0.7070330790103528  0.04809483340918026  0.44624074393295315  1.0000
  C   C52       1.0  0.29296692033501154  0.9519051663089179  0.5537592558555399  1.0000
  C   C53       1.0  0.7731607858311917  0.05021389228699399  0.522355911563094  1.0000
  C   C54       1.0  0.22683921422240358  0.9497861074272014  0.4776440882208247  1.0000
  C   C55       1.0  0.929432261100905  0.06784443608154671  0.6881142620385067  1.0000
  C   C56       1.0  0.07056773895269011  0.9321555636326486  0.31188573774541206  1.0000
  C   C57       1.0  0.7796881846902487  0.9054275424367808  0.8165377354996662  1.0000
  C   C58       1.0  0.22031181591497864  0.09457245857276775  0.1834622651230919  1.0000
  C   C59       1.0  0.7017818704954563  0.9437960841507874  0.8194313447662804  1.0000
  C   C60       1.0  0.29821812884990806  0.05620391556731055  0.18056865502221267  1.0000
  C   C61       1.0  0.6327747895218685  0.9022094184899166  0.7199409576253201  1.0000
  C   C62       1.0  0.3672252107737818  0.09779058173898748  0.28005904299458984  1.0000
  C   C63       1.0  0.6421118205183332  0.8227420182390518  0.6160893251039296  1.0000
  C   C64       1.0  0.3578881797773171  0.17725798198985232  0.3839106755159804  1.0000
  C   C65       1.0  0.7197455345243164  0.7838321570757975  0.6146991646702966  1.0000
  C   C66       1.0  0.2802544655292788  0.21616784263839797  0.3853008351136221  1.0000
  C   C67       1.0  0.7889479930763169  0.8235685139798585  0.7135936617615825  1.0000
  C   C68       1.0  0.21105200697727836  0.17643148573433684  0.2864063380223362  1.0000
  C   C69       1.0  0.46047226547596165  0.5558227184874625  0.7263258027623287  1.0000
  C   C70       1.0  0.5395277338694027  0.4441772812306357  0.2736741970261645  1.0000
  C   C71       1.0  0.3804308140055554  0.4570600053834896  0.7277549434506566  1.0000
  C   C72       1.0  0.6195691860480399  0.5429399943307058  0.27224505633326224  1.0000
  C   C73       1.0  0.3199034403725705  0.4836245678422739  0.8025246905325676  1.0000
  C   C74       1.0  0.6800965596810248  0.5163754318719215  0.1974753092513511  1.0000
  C   C75       1.0  0.3378997746862829  0.6056950502458154  0.8761804907520183  1.0000
  C   C76       1.0  0.6621002253673124  0.39430494946838013  0.12381950903190042  1.0000
  C   C77       1.0  0.4173775480218447  0.7026541005994722  0.8716296119961013  1.0000
  C   C78       1.0  0.5826224520317504  0.297345899114723  0.12837038778781726  1.0000
  C   C79       1.0  0.4778327953557764  0.6774809708307695  0.797170676944203  1.0000
  C   C80       1.0  0.5221672046978189  0.3225190288834258  0.20282932283971572  1.0000
  C   C81       1.0  0.2400116849565431  0.6634059713190792  0.6693710959163207  1.0000
  C   C82       1.0  0.7599883150970521  0.3365940283951162  0.3306289038675981  1.0000
  C   C83       1.0  0.22178826813347785  0.543010699138771  0.5910660666740554  1.0000
  C   C84       1.0  0.7782117322296944  0.45698930135606886  0.4089339331127116  1.0000
  C   C85       1.0  0.13440017519938605  0.43826814437367667  0.5778195548662558  1.0000
  C   C86       1.0  0.8655998248542092  0.5617318553405187  0.422180444917663  1.0000
  C   C87       1.0  0.06615273270132381  0.45722488522356164  0.6449110435916374  1.0000
  C   C88       1.0  0.9338472673522715  0.5427751144906338  0.35508895619228126  1.0000
  C   C89       1.0  0.08231764584776179  0.5775237422077965  0.7232390417811413  1.0000
  C   C90       1.0  0.9176823542058334  0.42247625750639894  0.2767609580027775  1.0000
  C   C91       1.0  0.1705505206075631  0.680905568618124  0.7345990560922049  1.0000
  C   C92       1.0  0.8294494794460321  0.3190944310960713  0.26540094369171385  1.0000
  N   N1        1.0  0.21596592581030022  0.45065813805097776  0.9926470098890227  1.0000
  N   N2        1.0  0.784034074243295  0.5493418616632175  0.007352989894895972  1.0000
  N   N3        1.0  0.8387370616459544  0.38455828145272536  0.7190302112973014  1.0000
  N   N4        1.0  0.16126293840764078  0.61544171826147  0.2809697884866173  1.0000
  N   N5        1.0  0.30782751880744597  0.2237724834330451  0.7595644037943163  1.0000
  N   N6        1.0  0.6921724812461493  0.7762275162811503  0.2404355959896025  1.0000
  N   N7        1.0  0.9299657702630818  0.15797739724288817  0.4830743429243052  1.0000
  N   N8        1.0  0.07003422979051349  0.8420226024713071  0.5169256568596136  1.0000
  O   O1        1.0  0.577120839662071  0.7878791621360128  0.520931416442268  1.0000
  O   O2        1.0  0.42287916063357933  0.21212083809289128  0.4790685841776419  1.0000
  O   O3        1.0  0.8656019187346222  0.7883605934269448  0.713729132310719  1.0000
  O   O4        1.0  0.13439808131897302  0.2116394062872507  0.28627086747319963  1.0000
  O   O5        1.0  0.3629935285992947  0.3380540504626654  0.6574123899477881  1.0000
  O   O6        1.0  0.6370064716963556  0.6619459497662387  0.34258761067212185  1.0000
  O   O7        1.0  0.28240110476819685  0.6330632000744548  0.9511869304626724  1.0000
  O   O8        1.0  0.7175988945771673  0.3669367996436432  0.04881306932582069  1.0000
  O   O9        1.0  0.1191592800174738  0.3216999762610925  0.501018006798148  1.0000
  O   O10       1.0  0.8808407202781765  0.6783000239678116  0.4989819938217619  1.0000
  O   O11       1.0  0.016479085878390618  0.5971453392009586  0.7873223066963775  1.0000
  O   O12       1.0  0.9835209144847816  0.40285466129388126  0.21267769309038934  1.0000
  S   S1        1.0  0.003933275919681769  0.3897984418260472  0.8642431876883483  1.0000
  S   S2        1.0  0.9960667241339135  0.6102015578881481  0.1357568120955705  1.0000
  S   S3        1.0  0.09511314166925389  0.16924471869812727  0.6345719908427447  1.0000
  S   S4        1.0  0.9048868586939184  0.8307552817967125  0.3654280089440222  1.0000
  Cl  Cl1       1.0  0.8690328005840197  0.9621963536586866  0.9401989184260321  1.0000
  Cl  Cl2       1.0  0.13096719946957555  0.037803646055508726  0.059801081357886636  1.0000
  Cl  Cl3       1.0  0.5342743696120758  0.9479622247546453  0.7241687273681688  1.0000
  Cl  Cl4       1.0  0.4657256297332886  0.05203777496345291  0.2758312724203244  1.0000
  Cl  Cl5       1.0  0.5375355845002318  0.5265329747060113  0.6361606970610868  1.0000
  Cl  Cl6       1.0  0.4624644155533634  0.473467025008184  0.3638393027228319  1.0000
  Cl  Cl7       1.0  0.4414700390382114  0.8546521829944042  0.9608550659011372  1.0000
  Cl  Cl8       1.0  0.5585299603071529  0.14534781672369387  0.03914493388735587  1.0000
  Cl  Cl9       1.0  0.3082079310118636  0.5213099055432665  0.5104725925602202  1.0000
  Cl  Cl10      1.0  0.6917920692837867  0.4786900946856376  0.4895274080596898  1.0000
  Cl  Cl11      1.0  0.19146998031889215  0.8300399752337433  0.831603531271937  1.0000
  Cl  Cl12      1.0  0.8085300193360492  0.1699600252649992  0.16839646851940435  1.0000
