data_image0
_chemical_formula_structural       H48C40N12O12S8
_chemical_formula_sum              "H48 C40 N12 O12 S8"
_cell_length_a       7.240254281476326
_cell_length_b       12.144269795370327
_cell_length_c       15.190112512442946
_cell_angle_alpha    68.16628517572659
_cell_angle_beta     80.4254081506801
_cell_angle_gamma    85.8013646423854

_space_group_name_H-M_alt    "P 1"
_space_group_IT_number       1

loop_
  _space_group_symop_operation_xyz
  'x, y, z'

loop_
  _atom_site_type_symbol
  _atom_site_label
  _atom_site_symmetry_multiplicity
  _atom_site_fract_x
  _atom_site_fract_y
  _atom_site_fract_z
  _atom_site_occupancy
  H   H1        1.0  0.388121019425649  0.8679395110617055  0.07612786865463277  1.0000
  H   H2        1.0  0.6118789817091708  0.13206048899351758  0.9238721309205825  1.0000
  H   H3        1.0  0.5156380179542371  0.735588975775568  0.11111257314749576  1.0000
  H   H4        1.0  0.4843619817919338  0.2644110233953448  0.8888874274586771  1.0000
  H   H5        1.0  0.9585790493807544  0.7200196636028786  0.10003038015869183  1.0000
  H   H6        1.0  0.04142095036735254  0.2799803355673486  0.8999696197892092  1.0000
  H   H7        1.0  0.043016441082368774  0.8512696513809708  0.09913668508531413  1.0000
  H   H8        1.0  0.9569835586497999  0.14873034867707272  0.9008633152576832  1.0000
  H   H9        1.0  0.14835693155672092  0.5574137874101271  0.1153887308370812  1.0000
  H   H10       1.0  0.8516430681773838  0.4425862126472311  0.8846112688476442  1.0000
  H   H11       1.0  0.39308250445642934  0.5689878799444992  0.10089097998340263  1.0000
  H   H12       1.0  0.6069174952776754  0.43101212011285883  0.8991090197013227  1.0000
  H   H13       1.0  0.14467108359075884  0.05966372476658816  0.11038666677312858  1.0000
  H   H14       1.0  0.8553289161414099  0.9403362752914554  0.8896133335698684  1.0000
  H   H15       1.0  0.38967711093866597  0.07178321462917371  0.09580589629432314  1.0000
  H   H16       1.0  0.6103228887954387  0.9282167854281844  0.9041941033904022  1.0000
  H   H17       1.0  0.5097723064209919  0.2384891831204619  0.1076991724037557  1.0000
  H   H18       1.0  0.4902276933111768  0.7615108169375817  0.8923008279392415  1.0000
  H   H19       1.0  0.38099834050913145  0.37017329050106845  0.07195517386962418  1.0000
  H   H20       1.0  0.6190016592230373  0.6298267095569751  0.928044826473373  1.0000
  H   H21       1.0  0.9536556422581656  0.221342559003659  0.09655726876177152  1.0000
  H   H22       1.0  0.04634435747593909  0.7786574410536992  0.9034427309229539  1.0000
  H   H23       1.0  0.03609187090644128  0.350862802944616  0.10005680872722986  1.0000
  H   H24       1.0  0.9639081288276633  0.6491371971127421  0.8999431909574954  1.0000
  H   H25       1.0  0.4717253311045249  0.06247938225163352  0.282844221841283  1.0000
  H   H26       1.0  0.5282746700302947  0.9375206178035896  0.7171557777339324  1.0000
  H   H27       1.0  0.36186768908431943  0.9398363030992194  0.4506821363452993  1.0000
  H   H28       1.0  0.6381323120485644  0.060163696956689154  0.5493178638881878  1.0000
  H   H29       1.0  0.7351252913410238  0.6563342008219163  0.42211101500018533  1.0000
  H   H30       1.0  0.2648747083911449  0.3436657992361273  0.5778889853428119  1.0000
  H   H31       1.0  0.8394829234363048  0.7777301577382917  0.25375108794419515  1.0000
  H   H32       1.0  0.1605170762977999  0.22226984231906652  0.74624891174053  1.0000
  H   H33       1.0  0.26843911193170084  0.740238764013051  0.7626616449772692  1.0000
  H   H34       1.0  0.7315608878024037  0.25976123604430706  0.2373383547074562  1.0000
  H   H35       1.0  0.38392179043808583  0.8626537615765612  0.5960983342665578  1.0000
  H   H36       1.0  0.6160782092960189  0.13734623848079694  0.4039016654181677  1.0000
  H   H37       1.0  0.5544504371123482  0.5466207447816837  0.5352533261200025  1.0000
  H   H38       1.0  0.4455495626217565  0.45337925527567446  0.4647466735647226  1.0000
  H   H39       1.0  0.4342753100259441  0.42374327524841504  0.7022386830471694  1.0000
  H   H40       1.0  0.5657246897081606  0.5762567248089431  0.29776131663755584  1.0000
  H   H41       1.0  0.21834680421931835  0.6944984807549183  0.29216930711462513  1.0000
  H   H42       1.0  0.7816531955147863  0.30550151930243985  0.7078306925701001  1.0000
  H   H43       1.0  0.18435050972185282  0.7105521563222562  0.46221100750274363  1.0000
  H   H44       1.0  0.8156494900122518  0.28944784373510185  0.5377889921819816  1.0000
  H   H45       1.0  0.14216386397536418  0.21619780274652012  0.28726944292453976  1.0000
  H   H46       1.0  0.8578361357587404  0.7838021973108381  0.7127305567601855  1.0000
  H   H47       1.0  0.156136029866947  0.22064223545638958  0.4580965302206806  1.0000
  H   H48       1.0  0.8438639712659368  0.779357764599519  0.5419034700128066  1.0000
  C   C1        1.0  0.24063062703539345  0.7172330613758946  0.10431845042420175  1.0000
  C   C2        1.0  0.7593693740994262  0.2827669386793285  0.8956815491510136  1.0000
  C   C3        1.0  0.2354347307794195  0.21911938923829866  0.10067223498624493  1.0000
  C   C4        1.0  0.7645652703554001  0.7808806108169245  0.8993277645889703  1.0000
  C   C5        1.0  0.6609134544493617  0.927562453686438  0.2574350704031655  1.0000
  C   C6        1.0  0.3390865452968093  0.07243754548447484  0.7425649302030075  1.0000
  C   C7        1.0  0.5275830811599717  0.9728570042985697  0.31327066372201906  1.0000
  C   C8        1.0  0.47241691858813534  0.02714299487165761  0.686729336225882  1.0000
  C   C9        1.0  0.4675810231396255  0.9033491782477838  0.4086753377642028  1.0000
  C   C10       1.0  0.5324189765944791  0.09665082180957439  0.5913246619205226  1.0000
  C   C11       1.0  0.5394627250748195  0.78785222977657  0.450175174585489  1.0000
  C   C12       1.0  0.4605372746573491  0.2121477702814736  0.549824825757508  1.0000
  C   C13       1.0  0.6728628780438829  0.7442032924077228  0.39203370095631856  1.0000
  C   C14       1.0  0.3271371216882858  0.25579670765032075  0.6079662993866785  1.0000
  C   C15       1.0  0.7333883246705348  0.8128157562557572  0.29654680160368363  1.0000
  C   C16       1.0  0.2666116750635699  0.18718424380160084  0.7034531980810417  1.0000
  C   C17       1.0  0.3435235649393725  0.5737087615905674  0.7425524961160482  1.0000
  C   C18       1.0  0.656476434794732  0.4262912384667907  0.2574475035686771  1.0000
  C   C19       1.0  0.3298750575078199  0.6973834138321896  0.7128783177455826  1.0000
  C   C20       1.0  0.6701249422243488  0.302616586225854  0.28712168259741455  1.0000
  C   C21       1.0  0.3955445021323919  0.766484948760152  0.6181870031159875  1.0000
  C   C22       1.0  0.6044554976017127  0.23351505129720607  0.3818129965687378  1.0000
  C   C23       1.0  0.4762346067427192  0.7144802824372806  0.5516816926051775  1.0000
  C   C24       1.0  0.5237653929913854  0.2855197176200777  0.44831830707954784  1.0000
  C   C25       1.0  0.4917149831221939  0.5902095075325001  0.584190028237932  1.0000
  C   C26       1.0  0.5082850166119108  0.409790492524858  0.4158099714467935  1.0000
  C   C27       1.0  0.42498677253812006  0.5200038606409736  0.6784852133392225  1.0000
  C   C28       1.0  0.5750132271940487  0.4799961394170699  0.32151478700377456  1.0000
  C   C29       1.0  0.14816164016063035  0.6317560307118714  0.35911890369217025  1.0000
  C   C30       1.0  0.8518383595715384  0.3682439693461723  0.6408810966508268  1.0000
  C   C31       1.0  0.12964207095508287  0.6384148676545202  0.44857913881724365  1.0000
  C   C32       1.0  0.8703579287770858  0.3615851324035233  0.5514208615257535  1.0000
  C   C33       1.0  0.9712689755282475  0.4602776133152761  0.4810806841266973  1.0000
  C   C34       1.0  0.02873102420392118  0.5397223867427675  0.5189193162162998  1.0000
  C   C35       1.0  0.09726164979286514  0.14658167181470888  0.35591687339230393  1.0000
  C   C36       1.0  0.9027383499412395  0.8534183282426493  0.6440831262924215  1.0000
  C   C37       1.0  0.10313711328657688  0.14712458683987992  0.4457230927030332  1.0000
  C   C38       1.0  0.8968628864475278  0.8528754132174783  0.554276906981692  1.0000
  C   C39       1.0  0.9694255663253419  0.9601135015082518  0.48177599431716595  1.0000
  C   C40       1.0  0.03057443340682673  0.03988649854979191  0.5182240060258312  1.0000
  N   N1        1.0  0.3877329740078006  0.7778879417430323  0.1054242667349839  1.0000
  N   N2        1.0  0.612267025724368  0.2221120583150113  0.8945757336080131  1.0000
  N   N3        1.0  0.07127804739532927  0.7680731561414044  0.09743401557652583  1.0000
  N   N4        1.0  0.9287219523387753  0.2319268439159536  0.9025659841081995  1.0000
  N   N5        1.0  0.2627356941785359  0.6028961027296575  0.11482742068143184  1.0000
  N   N6        1.0  0.7372643069543479  0.3971038973262511  0.8851725795520553  1.0000
  N   N7        1.0  0.2589529245578156  0.10571648789011705  0.10895506678606545  1.0000
  N   N8        1.0  0.7410470751762891  0.8942835121672411  0.8910449328986598  1.0000
  N   N9        1.0  0.38154686589235803  0.2801697270051054  0.10252069188766856  1.0000
  N   N10       1.0  0.6184531338417466  0.7198302730522528  0.8974793077970568  1.0000
  N   N11       1.0  0.06559197857746644  0.26936842645845294  0.09478381368307817  1.0000
  N   N12       1.0  0.9344080211566383  0.7306315735989051  0.9052161860016472  1.0000
  O   O1        1.0  0.7229088726192328  0.14093929416449852  0.13149970193123908  1.0000
  O   O2        1.0  0.27709112712887424  0.8590607050057288  0.8685002980166618  1.0000
  O   O3        1.0  0.937741398580087  0.9822536773260458  0.11577093983966635  1.0000
  O   O4        1.0  0.06225860255473261  0.01774632272917744  0.8842290597355489  1.0000
  O   O5        1.0  0.6197821752593993  0.9922780994904132  0.07730378688261876  1.0000
  O   O6        1.0  0.38021782587348446  0.0077219005654953566  0.9226962133508683  1.0000
  O   O7        1.0  0.271620839868263  0.3603060908593741  0.8673574322569877  1.0000
  O   O8        1.0  0.7283791598658415  0.6396939091979841  0.1326425674277376  1.0000
  O   O9        1.0  0.3718279452309867  0.5083394201233405  0.9237609351940204  1.0000
  O   O10       1.0  0.6281720545031177  0.4916605799340175  0.07623906449070489  1.0000
  O   O11       1.0  0.057829611358209417  0.5202988557152638  0.8799688393321237  1.0000
  O   O12       1.0  0.9421703883739592  0.4797011443427798  0.12003116101087342  1.0000
  S   S1        1.0  0.7410605017022184  0.016950421994175062  0.1363841716852588  1.0000
  S   S2        1.0  0.2589394980299503  0.9830495780638686  0.8636158286577383  1.0000
  S   S3        1.0  0.2551808042827385  0.4842429374617518  0.8624545186732084  1.0000
  S   S4        1.0  0.7448191954513662  0.5157570625956064  0.13754548101151684  1.0000
  S   S5        1.0  0.043719132337767606  0.508149213629495  0.358798679351953  1.0000
  S   S6        1.0  0.956280867396337  0.49185078642786323  0.6412013203327722  1.0000
  S   S7        1.0  0.0033837130346395824  0.01850536922901405  0.35793299786616684  1.0000
  S   S8        1.0  0.9966162866994651  0.9814946308283442  0.6420670018185584  1.0000
