data_image0
_chemical_formula_structural       H46C36N12O12S4
_chemical_formula_sum              "H46 C36 N12 O12 S4"
_cell_length_a       7.060814687587547
_cell_length_b       12.659126834837872
_cell_length_c       13.04704476761292
_cell_angle_alpha    92.05741206877748
_cell_angle_beta     104.09057060345015
_cell_angle_gamma    103.83088507552445

_space_group_name_H-M_alt    "P 1"
_space_group_IT_number       1

loop_
  _space_group_symop_operation_xyz
  'x, y, z'

loop_
  _atom_site_type_symbol
  _atom_site_label
  _atom_site_symmetry_multiplicity
  _atom_site_fract_x
  _atom_site_fract_y
  _atom_site_fract_z
  _atom_site_occupancy
  H   H1        1.0  0.3506368757655122  0.48833987140470775  0.7076915446629829  1.0000
  H   H2        1.0  0.8215829676930579  0.784613390492046  0.05483633375662921  1.0000
  H   H3        1.0  0.5762982122057767  0.3951571581971968  0.020474003215700583  1.0000
  H   H4        1.0  0.7445974481134663  0.5890472806190957  0.08658238405311151  1.0000
  H   H5        1.0  0.43209451239165125  0.6834646302070352  0.6754748963221162  1.0000
  H   H6        1.0  0.6022579881817243  0.877372662843427  0.7413647193623435  1.0000
  H   H7        1.0  0.08351296928824538  0.42016271410408795  0.4143911177821235  1.0000
  H   H8        1.0  0.5594772016460491  0.5226047326076725  0.24942107208032077  1.0000
  H   H9        1.0  0.09016265591055324  0.8533351645008257  0.34630780443918185  1.0000
  H   H10       1.0  0.41201169579349145  0.557581308428015  0.48411594456568824  1.0000
  H   H11       1.0  0.6145781848174761  0.7511548232319766  0.5111330200763025  1.0000
  H   H12       1.0  0.7614323775269802  0.7159114938058496  0.2768860680456566  1.0000
  H   H13       1.0  0.942376498891136  0.9985025191134267  0.4914781479067627  1.0000
  H   H14       1.0  0.19985237305772788  0.021588617182457276  0.4950676136935865  1.0000
  H   H15       1.0  0.016891006079473213  0.017797756639616205  0.771377262799079  1.0000
  H   H16       1.0  0.8503442094276866  0.01964080382312581  0.6475876791360402  1.0000
  H   H17       1.0  0.37515652817424383  0.05021471996512962  0.7732284387420357  1.0000
  H   H18       1.0  0.42633499768661937  0.011818760184542672  0.6550447083636796  1.0000
  H   H19       1.0  0.2309835892085325  0.2749621063573037  0.2702663147383024  1.0000
  H   H20       1.0  0.9732193783282487  0.25089833811331047  0.26636331247478917  1.0000
  H   H21       1.0  0.32434167709130424  0.25475783349204906  0.11385452619820556  1.0000
  H   H22       1.0  0.15678565159316168  0.25611730388937726  0.9901815515956455  1.0000
  H   H23       1.0  0.7467795973999667  0.2603929400405315  0.10585814218086406  1.0000
  H   H24       1.0  0.8000236744687762  0.2232746553345541  0.987824975025113  1.0000
  H   H25       1.0  0.2810330735730069  0.04165383231772806  0.9898287734483772  1.0000
  H   H26       1.0  0.5330463689714459  0.04577973872111644  0.992725494570861  1.0000
  H   H27       1.0  0.34259631456510303  0.03143516217457677  0.2667744864495375  1.0000
  H   H28       1.0  0.17173120603676806  0.028465294955848923  0.14257652143345237  1.0000
  H   H29       1.0  0.6711643697565848  0.018704438658879826  0.27005625872522154  1.0000
  H   H30       1.0  0.7488601796900962  0.023026471866044358  0.1511507857885335  1.0000
  H   H31       1.0  0.003002825824618017  0.24603536707544213  0.6195218833372556  1.0000
  H   H32       1.0  0.8321418252619208  0.24343459082268099  0.49513714562698613  1.0000
  H   H33       1.0  0.4245212608609312  0.249611724037478  0.6091393083864038  1.0000
  H   H34       1.0  0.5038046873843742  0.25439431305920934  0.4906794911873818  1.0000
  H   H35       1.0  0.6394254130968064  0.22652743834224484  0.7683556384660623  1.0000
  H   H36       1.0  0.8922921811589116  0.23241245197515065  0.772109086932446  1.0000
  H   H37       1.0  0.19086353572978632  0.4740643940559844  0.13825406009540167  1.0000
  H   H38       1.0  0.8145618684310314  0.6178918541639555  0.5133301815864808  1.0000
  H   H39       1.0  0.367558328868177  0.8255037642661599  0.15539062789646216  1.0000
  H   H40       1.0  0.9113340187200086  0.4588600190252488  0.7993289226262663  1.0000
  H   H41       1.0  0.05942199956360502  0.46417871847577663  0.9461462993432709  1.0000
  H   H42       1.0  0.14599153515228325  0.8077753325136424  0.809521115097498  1.0000
  H   H43       1.0  0.0020940824943811364  0.7975602221073619  0.6178003835950525  1.0000
  H   H44       1.0  0.22644184611655863  0.8169321443734695  0.9636399698821194  1.0000
  H   H45       1.0  0.3506217103527081  0.6552723383044587  0.24626376682408135  1.0000
  H   H46       1.0  0.7687978501892117  0.4497068936671773  0.6073742218908033  1.0000
  C   C1        1.0  0.4539861910650656  0.43214722813460044  0.85957784152449  1.0000
  C   C2        1.0  0.7201401124841521  0.8405415864986705  0.9027163872783964  1.0000
  C   C3        1.0  0.5308465971448968  0.622270871427645  0.8267716975761669  1.0000
  C   C4        1.0  0.6422269575825473  0.6505158696294063  0.9357748556177196  1.0000
  C   C5        1.0  0.43628714487822845  0.5111157436682376  0.7903131428402138  1.0000
  C   C6        1.0  0.7362699270740032  0.7617538919713728  0.9722217949667962  1.0000
  C   C7        1.0  0.5644402389185063  0.45905817449684966  0.9674516473638063  1.0000
  C   C8        1.0  0.6570397103853688  0.5667657943174114  0.004243148023051995  1.0000
  C   C9        1.0  0.5183971193385222  0.7059170522195475  0.7579448555335424  1.0000
  C   C10       1.0  0.6118978755954243  0.8135024542382757  0.7945535909056411  1.0000
  C   C11       1.0  0.8122835866374835  0.461416530412858  0.33170508722854103  1.0000
  C   C12       1.0  0.3612465660804774  0.8121140526884896  0.42945297875369814  1.0000
  C   C13       1.0  0.014199998472398242  0.4851044383026254  0.38479235901430625  1.0000
  C   C14       1.0  0.04020810635679176  0.679064848947034  0.3606036635059871  1.0000
  C   C15       1.0  0.7187363042697822  0.5442961254125542  0.2921710323546102  1.0000
  C   C16       1.0  0.1333755675625824  0.5945422389219455  0.400569120065012  1.0000
  C   C17       1.0  0.1593581123929022  0.7884773435285709  0.37634231748762853  1.0000
  C   C18       1.0  0.3421398284264503  0.6223591471553035  0.45419065223385235  1.0000
  C   C19       1.0  0.455024796953939  0.7292642687397054  0.4687503895775581  1.0000
  C   C20       1.0  0.8315108944832982  0.6512068308237451  0.30677888849443724  1.0000
  C   C21       1.0  0.13530282241213  0.01931425180335959  0.6410977582126574  1.0000
  C   C22       1.0  0.03860651286248494  0.25400323362913146  0.12053030314863138  1.0000
  C   C23       1.0  0.4631229056536651  0.03796806967591856  0.13743397512991468  1.0000
  C   C24       1.0  0.7111591434681925  0.23577513038624454  0.6240810137805427  1.0000
  C   C25       1.0  0.20128249570758733  0.549774084830323  0.10020125349764995  1.0000
  C   C26       1.0  0.876253961944665  0.6227341626145401  0.599009134842589  1.0000
  C   C27       1.0  0.12963068192346272  0.639719540864697  0.9377535375133965  1.0000
  C   C28       1.0  0.29930342888291156  0.7460792241853533  0.10950598954102304  1.0000
  C   C29       1.0  0.9338062024684676  0.5340804336868813  0.7609788916609269  1.0000
  C   C30       1.0  0.041662562245874266  0.6341543363659232  0.8214294061313588  1.0000
  C   C31       1.0  0.12427857835382944  0.5444251906898591  0.990605076608352  1.0000
  C   C32       1.0  0.06275182310657536  0.7284701461272243  0.7667917160081247  1.0000
  C   C33       1.0  0.9815874219072567  0.7229250701616798  0.6575325880610712  1.0000
  C   C34       1.0  0.21936303284646017  0.7406605937000766  0.00015171488528979853  1.0000
  C   C35       1.0  0.2900993493749933  0.6506299138608058  0.1605359136406225  1.0000
  C   C36       1.0  0.8522579774523065  0.5283866137643846  0.6517389448337424  1.0000
  N   N1        1.0  0.08936713078117582  0.011954074943420386  0.5347511489074424  1.0000
  N   N2        1.0  0.9944092958249036  0.02493913636035629  0.6913055415202483  1.0000
  N   N3        1.0  0.32264154018267166  0.019000310761526338  0.6958933625908621  1.0000
  N   N4        1.0  0.08395899053740395  0.2607767262445661  0.226851068062911  1.0000
  N   N5        1.0  0.1801884509165772  0.2496049203739168  0.07036822057343073  1.0000
  N   N6        1.0  0.8511459376384461  0.25347788506448876  0.06543999771283956  1.0000
  N   N7        1.0  0.42498501063863386  0.04492281766376075  0.03289476100595147  1.0000
  N   N8        1.0  0.3168208185820418  0.03636986073698966  0.1865662363110558  1.0000
  N   N9        1.0  0.6483326110437433  0.034999134795559154  0.1925729160358984  1.0000
  N   N10       1.0  0.8581161508154381  0.23822889160443728  0.5753490613734781  1.0000
  N   N11       1.0  0.5261014971892484  0.23834108365229478  0.5682731240166093  1.0000
  N   N12       1.0  0.7483169842228306  0.2284867119019271  0.728566337176192  1.0000
  O   O1        1.0  0.27350819197595094  0.28495281565052444  0.6971805871780383  1.0000
  O   O2        1.0  0.9017013224187118  0.9880175936711052  0.06453639794890201  1.0000
  O   O3        1.0  0.14551863493515735  0.2700995856963948  0.8551466348043625  1.0000
  O   O4        1.0  0.027724069499385915  0.002787328812181385  0.9060772605081578  1.0000
  O   O5        1.0  0.46796107386047847  0.22790914558725658  0.8591128653220933  1.0000
  O   O6        1.0  0.7049546492460559  0.044275731004692336  0.902705472769878  1.0000
  O   O7        1.0  0.7979497055329976  0.25616522649186396  0.3550822497055138  1.0000
  O   O8        1.0  0.5910738881820242  0.3016835702484625  0.19161384573823348  1.0000
  O   O9        1.0  0.5833049596267035  0.9712344982238903  0.5698657782535362  1.0000
  O   O10       1.0  0.37564588784829395  0.017462516725855096  0.40690255929276226  1.0000
  O   O11       1.0  0.4963557108073675  0.31961576824560956  0.3585419661904791  1.0000
  O   O12       1.0  0.6769586929719716  0.954102847161976  0.4025585891227262  1.0000
  S   S1        1.0  0.3275247232421756  0.29360461587879444  0.8143699260409578  1.0000
  S   S2        1.0  0.8463866802060301  0.9790628329654791  0.9473353323211229  1.0000
  S   S3        1.0  0.6630149443735761  0.32407046637138165  0.3080451190847263  1.0000
  S   S4        1.0  0.5107046587630932  0.9494146055119272  0.45338639808829234  1.0000
