data_image0
_chemical_formula_structural       H30C24N6O6S4
_chemical_formula_sum              "H30 C24 N6 O6 S4"
_cell_length_a       6.125270610567856
_cell_length_b       7.185039402911775
_cell_length_c       16.170231364461124
_cell_angle_alpha    96.72407209373578
_cell_angle_beta     91.93560001054627
_cell_angle_gamma    94.07818010345383

_space_group_name_H-M_alt    "P 1"
_space_group_IT_number       1

loop_
  _space_group_symop_operation_xyz
  'x, y, z'

loop_
  _atom_site_type_symbol
  _atom_site_label
  _atom_site_symmetry_multiplicity
  _atom_site_fract_x
  _atom_site_fract_y
  _atom_site_fract_z
  _atom_site_occupancy
  H   H1        1.0  0.22787262607524048  0.27434711163200176  0.287668478797633  1.0000
  H   H2        1.0  0.7721273751916665  0.7256528884332658  0.7123315215156725  1.0000
  H   H3        1.0  0.30929735104790823  0.14182303002506905  0.1453824278352751  1.0000
  H   H4        1.0  0.6907026502188526  0.8581769700432736  0.8546175718597696  1.0000
  H   H5        1.0  0.6538889136802585  0.8754028859337446  0.11055760945960386  1.0000
  H   H6        1.0  0.3461110859528111  0.12459711412777509  0.889442390832757  1.0000
  H   H7        1.0  0.5702134330180361  0.010555641631861288  0.2529970345249965  1.0000
  H   H8        1.0  0.42978656661488723  0.9894443584327335  0.7470029651491037  1.0000
  H   H9        1.0  0.9408886769039898  0.7933195291240106  0.009919082474889106  1.0000
  H   H10       1.0  0.059111322728933435  0.2066804709405842  0.9900809171992112  1.0000
  H   H11       1.0  0.2081545587467116  0.9083003864762117  0.02349705566308089  1.0000
  H   H12       1.0  0.7918454425201954  0.09169961358905572  0.9765029446502245  1.0000
  H   H13       1.0  0.7726448439553749  0.6527863541411372  0.41242491406908566  1.0000
  H   H14       1.0  0.22735515567754844  0.3472136459234577  0.5875750856050144  1.0000
  H   H15       1.0  0.7615377219988736  0.8982981611477407  0.42617981553154183  1.0000
  H   H16       1.0  0.23846227763419597  0.10170183891377894  0.5738201847608191  1.0000
  H   H17       1.0  0.4605646278143718  0.45855269274482124  0.41525260892665716  1.0000
  H   H18       1.0  0.5394353718185514  0.5414473073197734  0.5847473907474431  1.0000
  H   H19       1.0  0.2009109200469383  0.5423205966653448  0.4066785532328066  1.0000
  H   H20       1.0  0.799089079585985  0.4576794033992499  0.5933214464412935  1.0000
  H   H21       1.0  0.4232732409948613  0.020212767290356305  0.4051122586574477  1.0000
  H   H22       1.0  0.5767267586382082  0.9797872327711633  0.5948877416349131  1.0000
  H   H23       1.0  0.18834294144926145  0.8884668245862886  0.42864160152157577  1.0000
  H   H24       1.0  0.8116570581838082  0.1115331754752309  0.5713583987707851  1.0000
  H   H25       1.0  0.17982583722347373  0.6093651271228531  0.07504838831009134  1.0000
  H   H26       1.0  0.8201741624095957  0.39063487293866656  0.9249516119822695  1.0000
  H   H27       1.0  0.29334344230080933  0.6235076417788138  0.23378584538553202  1.0000
  H   H28       1.0  0.706656557332114  0.37649235828578115  0.7662141542885682  1.0000
  H   H29       1.0  0.6944318777915032  0.5108904314748378  0.2545944769507642  1.0000
  H   H30       1.0  0.3055681218414201  0.48910956858975707  0.7454055227233359  1.0000
  C   C1        1.0  0.8935082481330445  0.14952706492267853  0.2789687848348519  1.0000
  C   C2        1.0  0.10649175313386247  0.8504729351425888  0.7210312154784535  1.0000
  C   C3        1.0  0.10217337011156195  0.186190838242045  0.2493069991295776  1.0000
  C   C4        1.0  0.8978266295215075  0.8138091618194747  0.7506930011627833  1.0000
  C   C5        1.0  0.14777978761149493  0.11029442387898425  0.16913550387002568  1.0000
  C   C6        1.0  0.8522202120215746  0.8897055761825353  0.8308644964223352  1.0000
  C   C7        1.0  0.9880068185177387  0.997840131678366  0.11820877055889352  1.0000
  C   C8        1.0  0.011993182749168378  0.0021598683869013873  0.8817912297544119  1.0000
  C   C9        1.0  0.7806988591012265  0.9619778878217253  0.14945126850585536  1.0000
  C   C10       1.0  0.21930114053184288  0.038022112239794265  0.8505487317865056  1.0000
  C   C11       1.0  0.7324716984923616  0.03709140168360114  0.22952653354693703  1.0000
  C   C12       1.0  0.2675283011405616  0.9629085983809937  0.770473466127163  1.0000
  C   C13       1.0  0.03305992856919547  0.9292947516418687  0.029688412340403758  1.0000
  C   C14       1.0  0.9669400726977114  0.07070524842339884  0.9703115879729017  1.0000
  C   C15       1.0  0.4636340696497342  0.7431757053381918  0.41293915405020165  1.0000
  C   C16       1.0  0.536365931617173  0.25682429472707563  0.5870608462631037  1.0000
  C   C17       1.0  0.4998252294837206  0.5104857264883302  0.04504185910598798  1.0000
  C   C18       1.0  0.500174770149349  0.48951427357318933  0.954958141186373  1.0000
  C   C19       1.0  0.337932303575549  0.5715505566402007  0.09761005690976246  1.0000
  C   C20       1.0  0.6620676960575206  0.42844944342131885  0.9023899433825984  1.0000
  C   C21       1.0  0.3982593426347309  0.577597143666971  0.1834654251278251  1.0000
  C   C22       1.0  0.6017406569983386  0.4224028563945486  0.8165345751645358  1.0000
  C   C23       1.0  0.6046947587163571  0.5194813572583725  0.1962834235920271  1.0000
  C   C24       1.0  0.39530524091656616  0.4805186428062223  0.803716576082073  1.0000
  N   N1        1.0  0.6820801569425741  0.7674728845571465  0.41336445726355336  1.0000
  N   N2        1.0  0.3179198443241867  0.23252711551119623  0.5866355424314913  1.0000
  N   N3        1.0  0.3672365917175513  0.5711304169307747  0.41454012481607516  1.0000
  N   N4        1.0  0.632763407915372  0.42886958313382006  0.5854598748580251  1.0000
  N   N5        1.0  0.34338815972920134  0.8910749727981745  0.4083153937642776  1.0000
  N   N6        1.0  0.6566118415377057  0.1089250272670929  0.5916846065490278  1.0000
  O   O1        1.0  0.9431289045114388  0.13357223373859284  0.43847960335850494  1.0000
  O   O2        1.0  0.05687109512163071  0.8664277663229267  0.561520396933856  1.0000
  O   O3        1.0  0.9244712874100725  0.4440890234049761  0.38990091979699143  1.0000
  O   O4        1.0  0.0755287138566883  0.5559109766633665  0.6100990798980533  1.0000
  O   O5        1.0  0.5944907718312036  0.23175187929613184  0.3858046523242101  1.0000
  O   O6        1.0  0.4055092278017197  0.7682481207684628  0.61419534734989  1.0000
  S   S1        1.0  0.8353098268418816  0.24606072319603828  0.38101150935436673  1.0000
  S   S2        1.0  0.16469017279118803  0.7539392768654813  0.6189884909379941  1.0000
  S   S3        1.0  0.7245391472490517  0.45681588112525834  0.10382508810817627  1.0000
  S   S4        1.0  0.27546085238401785  0.5431841189362613  0.8961749121841847  1.0000
