data_image0
_chemical_formula_structural       H30C26N8O6S2
_chemical_formula_sum              "H30 C26 N8 O6 S2"
_cell_length_a       6.1750642608537705
_cell_length_b       7.06660038909365
_cell_length_c       16.05031383753908
_cell_angle_alpha    95.29195376516884
_cell_angle_beta     94.77035003032944
_cell_angle_gamma    95.10677251390139

_space_group_name_H-M_alt    "P 1"
_space_group_IT_number       1

loop_
  _space_group_symop_operation_xyz
  'x, y, z'

loop_
  _atom_site_type_symbol
  _atom_site_label
  _atom_site_symmetry_multiplicity
  _atom_site_fract_x
  _atom_site_fract_y
  _atom_site_fract_z
  _atom_site_occupancy
  H   H1        1.0  0.8234190961869827  0.20859098858987457  0.22677618934341956  1.0000
  H   H2        1.0  0.17658090427657927  0.7914090112232701  0.7732238102653771  1.0000
  H   H3        1.0  0.494852872655151  0.4540860712477773  0.2631544675107829  1.0000
  H   H4        1.0  0.5051471261828367  0.5459139285605373  0.7368455320459426  1.0000
  H   H5        1.0  0.4425829872782631  0.5634275739246604  0.4123654165381272  1.0000
  H   H6        1.0  0.5574170115599706  0.43657242588265505  0.5876345836416063  1.0000
  H   H7        1.0  0.774252915546375  0.3148060615990084  0.37553264786417395  1.0000
  H   H8        1.0  0.2257470850710264  0.685193939641088  0.6244673524309662  1.0000
  H   H9        1.0  0.5640715502143545  0.05102527895173231  0.0833670878031501  1.0000
  H   H10       1.0  0.43592845024920757  0.9489747208614124  0.9166329118056465  1.0000
  H   H11       1.0  0.8207634819609707  0.9663925572142433  0.0868613949475459  1.0000
  H   H12       1.0  0.17923651850259142  0.033607442598901374  0.9131386046612507  1.0000
  H   H13       1.0  0.2547976897513802  0.8523564081150978  0.09030371780563919  1.0000
  H   H14       1.0  0.7452023108660211  0.14764359312499856  0.9096962824895011  1.0000
  H   H15       1.0  0.26046225228860964  0.6022929409663111  0.08120100522169932  1.0000
  H   H16       1.0  0.7395377481751985  0.39770705884583446  0.9187989950101052  1.0000
  H   H17       1.0  0.5988426821294448  0.4795739993351245  0.09325677745981426  1.0000
  H   H18       1.0  0.4011573183341173  0.5204260004780203  0.9067432221489824  1.0000
  H   H19       1.0  0.8312303567066963  0.6165687359096705  0.06994361995945789  1.0000
  H   H20       1.0  0.16876964375711173  0.3834312639024752  0.9300563802723466  1.0000
  H   H21       1.0  0.2484728511447578  0.18347928491203389  0.7592261152053155  1.0000
  H   H22       1.0  0.7515271493190501  0.8165207149001117  0.24077388502648914  1.0000
  H   H23       1.0  0.027082978977508013  0.2190687579162124  0.6264853780561177  1.0000
  H   H24       1.0  0.9729170198607258  0.780931241891103  0.3735146221236158  1.0000
  H   H25       1.0  0.15657332021650644  0.12401816058137108  0.4903526413811456  1.0000
  H   H26       1.0  0.8434266787750746  0.8759818406548943  0.5096473582389156  1.0000
  H   H27       1.0  0.7370196914642019  0.9447514525253439  0.6177132606927086  1.0000
  H   H28       1.0  0.262980308999606  0.05524854728680184  0.3822867395390959  1.0000
  H   H29       1.0  0.6060919144451206  0.04354467431635401  0.7525835817281693  1.0000
  H   H30       1.0  0.3939080843931132  0.9564553254909612  0.24741641845156417  1.0000
  C   C1        1.0  0.16223649518053654  0.3266418034099613  0.236660389322379  1.0000
  C   C2        1.0  0.8377635036574512  0.6733581963983533  0.7633396102343466  1.0000
  C   C3        1.0  0.9584185476898478  0.28686297856692217  0.26730965123478706  1.0000
  C   C4        1.0  0.04158145114838592  0.7131370212403932  0.7326903489449464  1.0000
  C   C5        1.0  0.10596310629318544  0.446366993926768  0.40231221783343724  1.0000
  C   C6        1.0  0.8940368941706226  0.5536330058853776  0.5976877823983673  1.0000
  C   C7        1.0  0.33767982195860907  0.42527445282837467  0.28782956259729503  1.0000
  C   C8        1.0  0.662320178505199  0.5747255469837709  0.7121704376345096  1.0000
  C   C9        1.0  0.308900901686895  0.4853165336543039  0.3709469555346247  1.0000
  C   C10       1.0  0.6910990971513388  0.5146834661530115  0.6290530446451088  1.0000
  C   C11       1.0  0.9301646583852223  0.34581262057745116  0.35008780253275257  1.0000
  C   C12       1.0  0.06983534207833991  0.6541873792356936  0.6499121970760442  1.0000
  C   C13       1.0  0.5584646772494173  0.7612541052490859  0.08281592749597728  1.0000
  C   C14       1.0  0.4415353232143907  0.23874589456305972  0.9171840727358272  1.0000
  C   C15       1.0  0.45982801467564444  0.027615943694628185  0.5413618602461825  1.0000
  C   C16       1.0  0.5401719857879177  0.9723840561185165  0.45863813936261416  1.0000
  C   C17       1.0  0.30768793391582355  0.13944175106425571  0.6990186223393096  1.0000
  C   C18       1.0  0.6923120649221643  0.8605582487440588  0.3009813772174159  1.0000
  C   C19       1.0  0.18365471849489587  0.15994649307557465  0.624326571752662  1.0000
  C   C20       1.0  0.816345281968912  0.840053506736571  0.3756734284791426  1.0000
  C   C21       1.0  0.25845067495459567  0.10525596909659655  0.5469467459732621  1.0000
  C   C22       1.0  0.7415493255089666  0.8947440307165482  0.4530532536355345  1.0000
  C   C23       1.0  0.581178145890031  0.005563167222640679  0.6176640983654863  1.0000
  C   C24       1.0  0.41882185472737016  0.9944368340174556  0.38233590192965394  1.0000
  C   C25       1.0  0.5067693583086667  0.0611857719642334  0.69503579896795  1.0000
  C   C26       1.0  0.4932306421548954  0.9388142278489114  0.30496420064084667  1.0000
  N   N1        1.0  0.09380298485495137  0.5148645493536712  0.48710806551376734  1.0000
  N   N2        1.0  0.9061970139830364  0.48513545045464335  0.5128919340429583  1.0000
  N   N3        1.0  0.6544890036632416  0.9365617036175952  0.07798343724380963  1.0000
  N   N4        1.0  0.34551099680032055  0.06343829619554958  0.922016562364987  1.0000
  N   N5        1.0  0.3422993133428217  0.7358171079916579  0.08517721769237047  1.0000
  N   N6        1.0  0.6577006871207404  0.2641828918214868  0.9148227819164262  1.0000
  N   N7        1.0  0.6759290395000727  0.6108618237050469  0.08614206239963172  1.0000
  N   N8        1.0  0.32407096096373544  0.38913817610709867  0.9138579378321728  1.0000
  O   O1        1.0  0.4307506059350828  0.2694899465224229  0.12177899577112478  1.0000
  O   O2        1.0  0.5692493945284793  0.7305100532907219  0.8782210038376719  1.0000
  O   O3        1.0  0.09919843208575421  0.051114339013633964  0.1151028307849519  1.0000
  O   O4        1.0  0.900801568377808  0.9488856607995108  0.8848971688238447  1.0000
  O   O5        1.0  0.07455839700115546  0.37799329944738164  0.07893336996739747  1.0000
  O   O6        1.0  0.9254416019906715  0.6220067017878844  0.9210666302756717  1.0000
  S   S1        1.0  0.1938424715872303  0.2516804023632585  0.13002503258297984  1.0000
  S   S2        1.0  0.8061575272510034  0.7483195974440568  0.8699749675967536  1.0000
