data_image0
_chemical_formula_structural       H104C104N24O12S4
_chemical_formula_sum              "H104 C104 N24 O12 S4"
_cell_length_a       7.489563073961005
_cell_length_b       29.592217098192727
_cell_length_c       11.521300566881676
_cell_angle_alpha    90.0
_cell_angle_beta     90.3324387364636
_cell_angle_gamma    90.0

_space_group_name_H-M_alt    "P 1"
_space_group_IT_number       1

loop_
  _space_group_symop_operation_xyz
  'x, y, z'

loop_
  _atom_site_type_symbol
  _atom_site_label
  _atom_site_symmetry_multiplicity
  _atom_site_fract_x
  _atom_site_fract_y
  _atom_site_fract_z
  _atom_site_occupancy
  H   H1        1.0  0.7440656298836273  0.7652041820611991  0.3256189081529802  1.0000
  H   H2        1.0  0.7559343704944942  0.2652041820306629  0.17438109191823883  1.0000
  H   H3        1.0  0.25593436956480514  0.23479581799987334  0.6743810917704693  1.0000
  H   H4        1.0  0.24406563028914943  0.7347958180304096  0.825618908008491  1.0000
  H   H5        1.0  0.6250519472055567  0.7482614589682878  0.449338946403813  1.0000
  H   H6        1.0  0.8749480518373539  0.24826145893775142  0.05066105366412581  1.0000
  H   H7        1.0  0.3749480522428759  0.2517385410927848  0.5506610535196366  1.0000
  H   H8        1.0  0.12505194761107866  0.7517385411233212  0.9493389462593237  1.0000
  H   H9        1.0  0.3154289948605082  0.7450426410039582  0.4450320758012772  1.0000
  H   H10       1.0  0.18457100419610256  0.245042640973422  0.05496792415880751  1.0000
  H   H11       1.0  0.6845710045879244  0.2549573590571143  0.5549679241221723  1.0000
  H   H12       1.0  0.8154289952523299  0.7549573590876505  0.945032075764642  1.0000
  H   H13       1.0  0.19797193171341582  0.7604045802088366  0.3186159283840182  1.0000
  H   H14       1.0  0.30202806867840604  0.26040458017830037  0.18138407157934666  1.0000
  H   H15       1.0  0.8020280677350167  0.23959541985223587  0.6813840715394314  1.0000
  H   H16       1.0  0.6979719321052377  0.7395954198827721  0.8186159283473831  1.0000
  H   H17       1.0  0.5913904126875408  0.7757143932078656  0.150730416151563  1.0000
  H   H18       1.0  0.9086095863553697  0.2757143931773294  0.3492695839163758  1.0000
  H   H19       1.0  0.40860958676089176  0.22428560685320684  0.8492695837718865  1.0000
  H   H20       1.0  0.0913904130957639  0.7242856068837431  0.6507304168750397  1.0000
  H   H21       1.0  0.3532011217049677  0.7744964989933021  0.14891255925113353  1.0000
  H   H22       1.0  0.146798877351643  0.2744964989627658  0.3510874407089511  1.0000
  H   H23       1.0  0.6467988777434649  0.22550350106777048  0.8510874406723161  1.0000
  H   H24       1.0  0.8532011220967896  0.7255035010983067  0.6489125592144984  1.0000
  H   H25       1.0  0.8519594685177357  0.8674552090781913  0.2843633024675927  1.0000
  H   H26       1.0  0.6480405305251747  0.367455209047655  0.21563669760034607  1.0000
  H   H27       1.0  0.14804053093069677  0.13254479064495456  0.7156366974558568  1.0000
  H   H28       1.0  0.35195946892325786  0.6325447906754909  0.7843633023231034  1.0000
  H   H29       1.0  0.8519378819093695  0.949165509863585  0.23911440502741732  1.0000
  H   H30       1.0  0.6480621184687522  0.44916550983304876  0.2608855950438017  1.0000
  H   H31       1.0  0.1480621188769753  0.05083449019748749  0.7608855957672784  1.0000
  H   H32       1.0  0.3519378809796804  0.5508344902280238  0.7391144048796477  1.0000
  H   H33       1.0  0.09566026085793437  0.9209278456416963  0.9071682151733592  1.0000
  H   H34       1.0  0.4043397389960202  0.4209278456111601  0.5928317846056009  1.0000
  H   H35       1.0  0.9043397385904982  0.07907215441937619  0.09283178475009027  1.0000
  H   H36       1.0  0.5956602604524123  0.5790721544499124  0.4071682153178486  1.0000
  H   H37       1.0  0.10015890182109902  0.840306768076484  0.9534323169442774  1.0000
  H   H38       1.0  0.3998410993707677  0.3403067683838744  0.5465676837059292  1.0000
  H   H39       1.0  0.8998410989625446  0.15969323164666188  0.04656768298245248  1.0000
  H   H40       1.0  0.600158901412876  0.6596932316771982  0.4534323162208006  1.0000
  H   H41       1.0  0.9036750272103938  0.009537313445069194  0.11550369481074843  1.0000
  H   H42       1.0  0.5963249731677278  0.5095373134756054  0.3844963052604706  1.0000
  H   H43       1.0  0.09632497357595096  0.9904626866160033  0.8844963059839472  1.0000
  H   H44       1.0  0.4036750262807048  0.49046268658546704  0.6155036946629789  1.0000
  H   H45       1.0  0.47310182105715126  0.8451646173387746  0.42679106425517216  1.0000
  H   H46       1.0  0.026898177999459517  0.34516461730823833  0.07320893570491245  1.0000
  H   H47       1.0  0.5268981783912814  0.15483538272229794  0.5732089356682774  1.0000
  H   H48       1.0  0.9731018214489731  0.6548353827528341  0.9267910642185372  1.0000
  H   H49       1.0  0.6250959152174481  0.9098983989829013  0.5229094347332169  1.0000
  H   H50       1.0  0.8749040846255074  0.409898398952365  0.9770905660215634  1.0000
  H   H51       1.0  0.3749040842309844  0.09010160107817126  0.4770905651902326  1.0000
  H   H52       1.0  0.12509591482562626  0.5901016011087075  0.022909434769852032  1.0000
  H   H53       1.0  0.6279830156596132  0.9856846532726135  0.42781874442780593  1.0000
  H   H54       1.0  0.8720169847185085  0.4856846532420771  0.0721812556434131  1.0000
  H   H55       1.0  0.3720169851240305  0.014315346788459176  0.5721812554989238  1.0000
  H   H56       1.0  0.12798301472992415  0.5143153464810687  0.9278187442800365  1.0000
  H   H57       1.0  0.3235976338288088  0.9321651962902325  0.14156003845322024  1.0000
  H   H58       1.0  0.17640236656571417  0.432165196597623  0.3584399623781106  1.0000
  H   H59       1.0  0.6764023656223249  0.06783480343291332  0.8584399623381953  1.0000
  H   H60       1.0  0.8235976342206306  0.5678348034634496  0.6415600384165852  1.0000
  H   H61       1.0  0.3236039492673943  0.8560352891418564  0.2343752897041898  1.0000
  H   H62       1.0  0.17639605112442755  0.35603528911132015  0.26562471025917506  1.0000
  H   H63       1.0  0.6763960501837393  0.1439647105812894  0.7656247110872257  1.0000
  H   H64       1.0  0.8236039496592161  0.6439647106118256  0.7343752896675547  1.0000
  H   H65       1.0  0.5125593693036605  0.19823420970908812  0.07115719737365184  1.0000
  H   H66       1.0  0.9874406310744611  0.6982342097396245  0.4288428026975672  1.0000
  H   H67       1.0  0.4874406314799832  0.8017657903519845  0.9288428025530778  1.0000
  H   H68       1.0  0.012559369709182564  0.3017657903214481  0.5711571972291626  1.0000
  H   H69       1.0  0.3909924834831263  0.13217197268530687  0.9620600955794101  1.0000
  H   H70       1.0  0.1090075163735293  0.6321719727158431  0.5379399050675163  1.0000
  H   H71       1.0  0.6090075159653061  0.8678280273757657  0.037939904344039585  1.0000
  H   H72       1.0  0.8909924830749033  0.3678280273452294  0.4620600948559333  1.0000
  H   H73       1.0  0.41248061865551505  0.054773614448070225  0.04638743371733962  1.0000
  H   H74       1.0  0.08751938040109569  0.5547736144786064  0.45361256624274504  1.0000
  H   H75       1.0  0.5875193807929174  0.9452263856130023  0.9536125662061098  1.0000
  H   H76       1.0  0.9124806190473369  0.4452263855824661  0.5463874336807045  1.0000
  H   H77       1.0  0.6891682541290428  0.10857213230556555  0.3440667966417297  1.0000
  H   H78       1.0  0.8108317462463778  0.6085721323361017  0.1559332025615234  1.0000
  H   H79       1.0  0.3108317466546009  0.891427867755507  0.655933203285  1.0000
  H   H80       1.0  0.1891682532020548  0.3914278677249707  0.8440667973619262  1.0000
  H   H81       1.0  0.6624076080966356  0.18664565252656648  0.2625392563839508  1.0000
  H   H82       1.0  0.8375923922814861  0.6866456525571027  0.23746074368726827  1.0000
  H   H83       1.0  0.3375923926870081  0.813354347534506  0.7374607435427789  1.0000
  H   H84       1.0  0.16240760716694652  0.3133543475039698  0.7625392562361811  1.0000
  H   H85       1.0  0.935798279837006  0.8186979285671572  0.6368688336945936  1.0000
  H   H86       1.0  0.5642017200032483  0.318697928536621  0.8631311661922209  1.0000
  H   H87       1.0  0.0642017196114266  0.18130207149391528  0.36313116622885594  1.0000
  H   H88       1.0  0.43579828078039523  0.6813020715244515  0.13686883373450887  1.0000
  H   H89       1.0  0.8217786897393092  0.8754713549861803  0.777915064596381  1.0000
  H   H90       1.0  0.6782213101009451  0.375471354955644  0.7220849352904334  1.0000
  H   H91       1.0  0.17822131104433436  0.12452864473696555  0.22208493533034873  1.0000
  H   H92       1.0  0.32177868934748743  0.6245286447675018  0.27791506463301613  1.0000
  H   H93       1.0  0.8509042022352296  0.9579184978245925  0.734478411659219  1.0000
  H   H94       1.0  0.6490957976050248  0.4579184977940562  0.7655215882275952  1.0000
  H   H95       1.0  0.14909579721320304  0.042081501898553336  0.2655215882642304  1.0000
  H   H96       1.0  0.35090420184340765  0.5420815019290897  0.23447841169585426  1.0000
  H   H97       1.0  0.10596800737197365  0.9265509934257183  0.4106909254226346  1.0000
  H   H98       1.0  0.39403199168463704  0.42655099339518204  0.08930907453745007  1.0000
  H   H99       1.0  0.8940319920764589  0.07344900663535421  0.5893090745008149  1.0000
  H   H100      1.0  0.6059680077637956  0.5734490066658905  0.9106909253859994  1.0000
  H   H101      1.0  0.07915472118214158  0.84419812943065  0.45335533029666225  1.0000
  H   H102      1.0  0.42084527920968023  0.34419812940011374  0.046644669666702686  1.0000
  H   H103      1.0  0.920845278266291  0.1558018706304225  0.5466446696267874  1.0000
  H   H104      1.0  0.5791547215739634  0.6558018706609587  0.953355330260027  1.0000
  C   C1        1.0  0.4715074331618686  0.7609972353634608  0.30475843895315946  1.0000
  C   C2        1.0  0.028492567229953292  0.2609972353329245  0.19524156101020546  1.0000
  C   C3        1.0  0.528492566286564  0.23900276469761175  0.6952415609702901  1.0000
  C   C4        1.0  0.9715074335536903  0.739002764728148  0.8047584389165243  1.0000
  C   C5        1.0  0.9744816146180557  0.8490468421689992  0.12120432308290528  1.0000
  C   C6        1.0  0.5255183857600659  0.3490468421384629  0.3787956769883138  1.0000
  C   C7        1.0  0.025518386165588023  0.15095315789207336  0.8787956768438244  1.0000
  C   C8        1.0  0.47448161369106767  0.6509531579226097  0.6212043238031018  1.0000
  C   C9        1.0  0.9038464343241293  0.8793505300280196  0.2017602601424065  1.0000
  C   C10       1.0  0.5961535647160803  0.37935052999748337  0.29823973905756634  1.0000
  C   C11       1.0  0.09615356512430337  0.12064947003305293  0.7982397397810432  1.0000
  C   C12       1.0  0.40384643473235227  0.6206494700635892  0.7017602608658832  1.0000
  C   C13       1.0  0.9031517037973599  0.9252048742800044  0.1755523889028351  1.0000
  C   C14       1.0  0.5968482965807619  0.4252048742494681  0.3244476111683839  1.0000
  C   C15       1.0  0.09684829565107274  0.07479512578106813  0.8244476110206144  1.0000
  C   C16       1.0  0.4031517042028819  0.5747951258116044  0.6755523887583458  1.0000
  C   C17       1.0  0.9706932400335819  0.9412908795434989  0.06936969415718613  1.0000
  C   C18       1.0  0.5293067603445397  0.44129087951296264  0.4306303059140329  1.0000
  C   C19       1.0  0.029306759414850635  0.05870912051757363  0.9306303057662634  1.0000
  C   C20       1.0  0.47069324043910393  0.5587091205481098  0.5693696940126969  1.0000
  C   C21       1.0  0.04102455355972081  0.9098210864249268  0.9897958952661805  1.0000
  C   C22       1.0  0.4589754462942338  0.40982108673231715  0.5102041045127798  1.0000
  C   C23       1.0  0.9589754458887118  0.09017891329821913  0.010204104657269045  1.0000
  C   C24       1.0  0.5410245544894099  0.5901789133287554  0.48979589541394997  1.0000
  C   C25       1.0  0.04338630297045079  0.8640643664905256  0.015233183180481025  1.0000
  C   C26       1.0  0.45661369742137103  0.36406436645998935  0.4847668167828838  1.0000
  C   C27       1.0  0.9566136964779818  0.13593563357054692  0.9847668167429685  1.0000
  C   C28       1.0  0.5433863033622726  0.6359356336010832  0.5152331831438459  1.0000
  C   C29       1.0  0.9668038679787478  0.9895578537705577  0.04737004286142081  1.0000
  C   C30       1.0  0.5331961310641626  0.4895578537400215  0.452629957206518  1.0000
  C   C31       1.0  0.033196131469684705  0.010442146290514737  0.9526299570620287  1.0000
  C   C32       1.0  0.4668038683842699  0.510442146321051  0.5473700427169316  1.0000
  C   C33       1.0  0.47484926495750884  0.878141858170777  0.3844190068870079  1.0000
  C   C34       1.0  0.025150735434313044  0.3781418581402407  0.11558099307635698  1.0000
  C   C35       1.0  0.5251507358261348  0.12185814189029556  0.6155809930397218  1.0000
  C   C36       1.0  0.9748492640141196  0.6218581419208319  0.8844190068470926  1.0000
  C   C37       1.0  0.560415860092429  0.9146398196589671  0.43891449560896423  1.0000
  C   C38       1.0  0.9395841402856925  0.41463981962843083  0.06108550446225478  1.0000
  C   C39       1.0  0.4395841406912146  0.08536018040210543  0.5610855043177655  1.0000
  C   C40       1.0  0.06041585916273998  0.5853601804326417  0.9389144954611947  1.0000
  C   C41       1.0  0.562343285947997  0.956977515609316  0.38664232770631307  1.0000
  C   C42       1.0  0.9376567144301245  0.45697751591670643  0.11335767236490595  1.0000
  C   C43       1.0  0.4376567148356467  0.04302248411382982  0.6133576722204167  1.0000
  C   C44       1.0  0.06234328501830791  0.5430224841443662  0.8866423275585436  1.0000
  C   C45       1.0  0.47650247285904557  0.9630169127050785  0.27867236111231136  1.0000
  C   C46       1.0  0.02349752753277629  0.46301691267454226  0.2213276388510535  1.0000
  C   C47       1.0  0.5234975265920881  0.03698308735599397  0.7213276396791042  1.0000
  C   C48       1.0  0.9765024732508675  0.5369830873865302  0.7786723610756763  1.0000
  C   C49       1.0  0.3897747326659918  0.9265715596441257  0.2247107406846593  1.0000
  C   C50       1.0  0.11022526639061893  0.4265715596135894  0.27528925927542536  1.0000
  C   C51       1.0  0.6102252667824408  0.07342844007902014  0.7752892592387903  1.0000
  C   C52       1.0  0.8897747330578135  0.5734284401095564  0.7247107406480242  1.0000
  C   C53       1.0  0.39026585904491595  0.8841655126137178  0.2771326546310753  1.0000
  C   C54       1.0  0.10973414134690587  0.38416551258318155  0.2228673453322896  1.0000
  C   C55       1.0  0.6097341417387278  0.11583448744735468  0.7228673452956544  1.0000
  C   C56       1.0  0.8902658581015267  0.6158344874778909  0.7771326545911599  1.0000
  C   C57       1.0  0.5232469841511165  0.1643330056637424  0.10775814071707654  1.0000
  C   C58       1.0  0.9767530148917939  0.6643330053563519  0.39224185935086237  1.0000
  C   C59       1.0  0.476753015297316  0.83566699439733  0.892241859206373  1.0000
  C   C60       1.0  0.023246984556638567  0.33566699436679387  0.6077581405725871  1.0000
  C   C61       1.0  0.4543020638580805  0.12723621307272548  0.04647517143496014  1.0000
  C   C62       1.0  0.04569793653374137  0.6272362131032617  0.45352482852840476  1.0000
  C   C63       1.0  0.5456979369255632  0.872763786988347  0.9535248284917696  1.0000
  C   C64       1.0  0.9543020642499024  0.3727637869578108  0.546475171398325  1.0000
  C   C65       1.0  0.4661874148625655  0.08390097375135949  0.09273179454973171  1.0000
  C   C66       1.0  0.03381258552925635  0.5839009737818958  0.4072682054136331  1.0000
  C   C67       1.0  0.5338125845858671  0.916099026309713  0.9072682053737179  1.0000
  C   C68       1.0  0.9661874152543873  0.4160990262791768  0.5927317945130965  1.0000
  C   C69       1.0  0.5496348985662207  0.07756062962042047  0.20127053995819932  1.0000
  C   C70       1.0  0.9503651018119008  0.5775606296509568  0.2987294601130197  1.0000
  C   C71       1.0  0.45036510088221166  0.922439370440652  0.7987294599652502  1.0000
  C   C72       1.0  0.049634898971742863  0.42243937041011576  0.7012705398137099  1.0000
  C   C73       1.0  0.6229682514619931  0.11455633346941871  0.26103114691028223  1.0000
  C   C74       1.0  0.8770317489134275  0.6145563334999549  0.23896885229297082  1.0000
  C   C75       1.0  0.3770317479864396  0.8854436665916539  0.7389688530131672  1.0000
  C   C76       1.0  0.12296825187021612  0.3854436665611176  0.7610311476337588  1.0000
  C   C77       1.0  0.6077043293521104  0.15793388391589724  0.21500189195994113  1.0000
  C   C78       1.0  0.8922956710260113  0.6579338839464335  0.28499810811127796  1.0000
  C   C79       1.0  0.3922956714315333  0.8420661161451752  0.7849981079667887  1.0000
  C   C80       1.0  0.10770432842242128  0.342066116114639  0.7150018918121717  1.0000
  C   C81       1.0  0.94750657861037  0.8546714923750888  0.6180976007940352  1.0000
  C   C82       1.0  0.5524934212298844  0.3546714923445526  0.8819023990927792  1.0000
  C   C83       1.0  0.05249342217327366  0.14532850768598368  0.3819023991326946  1.0000
  C   C84       1.0  0.44750657821854817  0.64532850771652  0.11809760083067032  1.0000
  C   C85       1.0  0.8844425303709613  0.8864567018738879  0.6976442396894404  1.0000
  C   C86       1.0  0.615557469469293  0.3864567018433516  0.8023557601973739  1.0000
  C   C87       1.0  0.11555747041268234  0.11354329818718462  0.3023557602372893  1.0000
  C   C88       1.0  0.3844425299791395  0.6135432982177208  0.1976442397260756  1.0000
  C   C89       1.0  0.9010304839276293  0.932513958262536  0.67424229576801  1.0000
  C   C90       1.0  0.5989695172478362  0.4325139582319998  0.8257577041220847  1.0000
  C   C91       1.0  0.09896951685601436  0.06748604179853647  0.3257577041587198  1.0000
  C   C92       1.0  0.40103048353580745  0.5674860418290728  0.17424229580464506  1.0000
  C   C93       1.0  0.9776365645797591  0.9468363751532219  0.5695279197185588  1.0000
  C   C94       1.0  0.5223634352604953  0.4468363754606124  0.9304720801682557  1.0000
  C   C95       1.0  0.022363434868673447  0.053163624569923865  0.4304720802048908  1.0000
  C   C96       1.0  0.4776365641879373  0.5531636246004602  0.06952791975519386  1.0000
  C   C97       1.0  0.04318177937133099  0.9148572369609101  0.49010315678072197  1.0000
  C   C98       1.0  0.45681822102049086  0.41485723726830054  0.009896843182642882  1.0000
  C   C99       1.0  0.9568182214123127  0.08514276276223576  0.5098968431460077  1.0000
  C   C100      1.0  0.5431817784279417  0.585142762792772  0.9901031567408065  1.0000
  C   C101      1.0  0.027990091942111436  0.8690184444331666  0.5148715716648361  1.0000
  C   C102      1.0  0.47200990791184316  0.3690184444026303  0.9851284281141243  1.0000
  C   C103      1.0  0.972009907506321  0.13098155562790592  0.48512842825861346  1.0000
  C   C104      1.0  0.5279900928718005  0.6309815556584422  0.014871571812605545  1.0000
  N   N1        1.0  0.6256603624751839  0.7559492884825519  0.36256611125187077  1.0000
  N   N2        1.0  0.8743396365677266  0.25594928845201564  0.13743388881606808  1.0000
  N   N3        1.0  0.37433963697324873  0.24405071157852062  0.6374338886715788  1.0000
  N   N4        1.0  0.1256603628807059  0.7440507116090569  0.8625661111073815  1.0000
  N   N5        1.0  0.31669303458554776  0.7537665696350362  0.35893781534695296  1.0000
  N   N6        1.0  0.183306964473764  0.2537665696045  0.14106218548109772  1.0000
  N   N7        1.0  0.6833069648655858  0.24623343042603626  0.6410621854444626  1.0000
  N   N8        1.0  0.8166930349773697  0.7462334304565725  0.8589378153103178  1.0000
  N   N9        1.0  0.4720003141102312  0.7731445739291121  0.19306641556147086  1.0000
  N   N10       1.0  0.027999686281590663  0.2731445738985757  0.306933584401894  1.0000
  N   N11       1.0  0.5279996866734125  0.22685542613196055  0.8069335843652589  1.0000
  N   N12       1.0  0.9720003131668419  0.7268554258245701  0.6930664155215556  1.0000
  N   N13       1.0  0.46536150364922896  0.004672433955901343  0.2189406743537461  1.0000
  N   N14       1.0  0.03463849674259293  0.5046724339864376  0.28105932560961877  1.0000
  N   N15       1.0  0.5346384971344147  0.9953275661051713  0.7810593255729836  1.0000
  N   N16       1.0  0.9653615027058396  0.4953275660746349  0.7189406743138308  1.0000
  N   N17       1.0  0.5668285942041411  0.035420754941136695  0.2582920131454324  1.0000
  N   N18       1.0  0.9331714061739805  0.535420754971673  0.24170798692578666  1.0000
  N   N19       1.0  0.4331714052442915  0.9645792447820091  0.7417079867780172  1.0000
  N   N20       1.0  0.06682859460966313  0.4645792450893995  0.758292013000943  1.0000
  N   N21       1.0  0.9834809718660434  0.9941021344357673  0.5517340034929537  1.0000
  N   N22       1.0  0.5165190279742109  0.4941021344052311  0.9482659963938608  1.0000
  N   N23       1.0  0.01651902891760019  0.005897865625305211  0.4482659964337761  1.0000
  N   N24       1.0  0.48348097147422164  0.5058978656558415  0.051734003529588735  1.0000
  O   O1        1.0  0.13115775327673035  0.7711323090216733  0.09558613607827803  1.0000
  O   O2        1.0  0.3688422471150915  0.27113230932906374  0.4044138638850869  1.0000
  O   O3        1.0  0.8688422461717022  0.22886769070147253  0.9044138638451714  1.0000
  O   O4        1.0  0.6311577536685522  0.7288676907320087  0.5955861360416429  1.0000
  O   O5        1.0  0.9672405852718815  0.7843702353554837  0.27577064053990347  1.0000
  O   O6        1.0  0.53275941510624  0.28437023532494743  0.22422935953131554  1.0000
  O   O7        1.0  0.032759414176551024  0.21562976470558878  0.724229359383546  1.0000
  O   O8        1.0  0.46724058567740356  0.715629764736125  0.7757706403954142  1.0000
  O   O9        1.0  0.8070348395786362  0.7725409310881336  0.0925394147347005  1.0000
  O   O10       1.0  0.6929651607994856  0.27254093105759747  0.40746058533651863  1.0000
  O   O11       1.0  0.19296515986979643  0.22745906897293883  0.9074605851887491  1.0000
  O   O12       1.0  0.3070348399841582  0.7274590690034751  0.5925394145902112  1.0000
  S   S1        1.0  0.9699404832210679  0.7904855524133277  0.14906412944465544  1.0000
  S   S2        1.0  0.5300595171570538  0.29048555238279145  0.35093587062656356  1.0000
  S   S3        1.0  0.030059516227364667  0.20951444764774482  0.8509358704787942  1.0000
  S   S4        1.0  0.46994048362658997  0.7095144476782811  0.6490641293001662  1.0000
