data_image0
_chemical_formula_structural       H34C28N8O8S2
_chemical_formula_sum              "H34 C28 N8 O8 S2"
_cell_length_a       6.080771509532886
_cell_length_b       7.235933641299396
_cell_length_c       17.77295144703003
_cell_angle_alpha    90.6372507420292
_cell_angle_beta     97.66048614136213
_cell_angle_gamma    96.34197162169424

_space_group_name_H-M_alt    "P 1"
_space_group_IT_number       1

loop_
  _space_group_symop_operation_xyz
  'x, y, z'

loop_
  _atom_site_type_symbol
  _atom_site_label
  _atom_site_symmetry_multiplicity
  _atom_site_fract_x
  _atom_site_fract_y
  _atom_site_fract_z
  _atom_site_occupancy
  H   H1        1.0  0.515836089413891  0.7290585002370642  0.1140641381896962  1.0000
  H   H2        1.0  0.4841639108336664  0.27094149963464553  0.8859358615827855  1.0000
  H   H3        1.0  0.12585844653845643  0.6072656594085762  0.31656328220642205  1.0000
  H   H4        1.0  0.874141552049208  0.3927343404587923  0.6834367174934203  1.0000
  H   H5        1.0  0.15372235162737133  0.5308234538280485  0.18276109480615071  1.0000
  H   H6        1.0  0.8462776486285225  0.46917654603790565  0.8172389055293247  1.0000
  H   H7        1.0  0.4885007875707316  0.8087616766833231  0.2494628905109704  1.0000
  H   H8        1.0  0.5114992126768257  0.19123832318838668  0.7505371092615113  1.0000
  H   H9        1.0  0.046233396896979626  0.37820054512285295  0.06960505823432085  1.0000
  H   H10       1.0  0.9537666033589143  0.6217994547431013  0.9303949421011546  1.0000
  H   H11       1.0  0.1756161561784393  0.6099277580659966  0.05888710932558966  1.0000
  H   H12       1.0  0.824383844069118  0.39007224180571315  0.9411128904468922  1.0000
  H   H13       1.0  0.5697753705376127  0.03314687752479564  0.5774201116910668  1.0000
  H   H14       1.0  0.4302246297099445  0.9668531223469139  0.42257988808141494  1.0000
  H   H15       1.0  0.8310105423432879  0.9533876298031652  0.5796382633084701  1.0000
  H   H16       1.0  0.16898945790426956  0.04661237006854451  0.42036173646401176  1.0000
  H   H17       1.0  0.26363490679342544  0.8300226688857877  0.5944859514131531  1.0000
  H   H18       1.0  0.736365091794239  0.16997733098158094  0.4055140482866894  1.0000
  H   H19       1.0  0.265098355128281  0.5886276454389818  0.5796490805796495  1.0000
  H   H20       1.0  0.7349016451192764  0.411372354432728  0.42035091919283246  1.0000
  H   H21       1.0  0.8204229661911261  0.6179637413209949  0.5472114335039477  1.0000
  H   H22       1.0  0.17957703239653855  0.38203625854637374  0.4527885661958947  1.0000
  H   H23       1.0  0.6099030602202847  0.4742785391840334  0.5819629166601831  1.0000
  H   H24       1.0  0.39009694002727263  0.5257214606876762  0.4180370831122988  1.0000
  H   H25       1.0  0.632118498852056  0.32390661854361097  0.23504511623307617  1.0000
  H   H26       1.0  0.3678815013955013  0.6760933813280987  0.7649548835394057  1.0000
  H   H27       1.0  0.03597954747388729  0.9346167207774442  0.06585198149254391  1.0000
  H   H28       1.0  0.9640204527736702  0.06538327909426556  0.9341480182799379  1.0000
  H   H29       1.0  0.26302408674038924  0.23437489630758412  0.2779623777784124  1.0000
  H   H30       1.0  0.7369759135155046  0.76562510355837  0.7220376225570629  1.0000
  H   H31       1.0  0.9655858594458414  0.03791892687466872  0.19428898125695804  1.0000
  H   H32       1.0  0.03441414099355527  0.9620810743822469  0.8057110190955226  1.0000
  H   H33       1.0  0.704299270170658  0.2143065088603616  0.10746242429152209  1.0000
  H   H34       1.0  0.2957007300768994  0.785693491011348  0.8925375754809597  1.0000
  C   C1        1.0  0.8055116937222055  0.7118381109756728  0.2910066493735997  1.0000
  C   C2        1.0  0.19448830652535182  0.28816188889603683  0.7089933503988821  1.0000
  C   C3        1.0  0.8343786292038188  0.625406066360578  0.14008905526353962  1.0000
  C   C4        1.0  0.16562137123557807  0.3745939348963375  0.8599109450889408  1.0000
  C   C5        1.0  0.6474569225430132  0.703572066544831  0.1592359594592631  1.0000
  C   C6        1.0  0.35254307770454407  0.2964279333268787  0.8407640403132186  1.0000
  C   C7        1.0  0.9921791386927958  0.6345127741659998  0.27234419495944373  1.0000
  C   C8        1.0  0.0078208599032052  0.36548722569561315  0.7276558053033922  1.0000
  C   C9        1.0  0.007645055702276386  0.5911320053328846  0.1966767480454576  1.0000
  C   C10       1.0  0.9923549445452808  0.4088679945388251  0.8033232517270241  1.0000
  C   C11       1.0  0.6330151689948188  0.7475885443146189  0.23439433002316484  1.0000
  C   C12       1.0  0.3669848312610752  0.2524114555513353  0.7656056703123106  1.0000
  C   C13       1.0  0.023463659033245193  0.512608014745  0.04270409857899966  1.0000
  C   C14       1.0  0.9765363412143122  0.4873919851267098  0.957295901193482  1.0000
  C   C15       1.0  0.5658011398948695  0.7497949727772815  0.5788875549750411  1.0000
  C   C16       1.0  0.43419885870113156  0.2502050270843317  0.42111244528779485  1.0000
  C   C17       1.0  0.5024103005851366  0.23759912505079  0.19797442754559524  1.0000
  C   C18       1.0  0.4975896996707573  0.7624008748151642  0.8020255727898802  1.0000
  C   C19       1.0  0.3756059698294935  0.06498736446857557  0.07995024915736115  1.0000
  C   C20       1.0  0.6243940304180639  0.9350126354031341  0.9200497506151206  1.0000
  C   C21       1.0  0.1659423224711561  0.017957590089708438  0.10386051722544222  1.0000
  C   C22       1.0  0.8340576761165085  0.9820424097776601  0.8961394824744002  1.0000
  C   C23       1.0  0.2946038413180461  0.18690661738677627  0.22242339443241263  1.0000
  C   C24       1.0  0.7053961589378478  0.8130933824791778  0.7775766059030628  1.0000
  C   C25       1.0  0.1268264029658785  0.07743554471675554  0.17531497366264623  1.0000
  C   C26       1.0  0.873173595621786  0.9225644551506131  0.8246850260371962  1.0000
  C   C27       1.0  0.5436359351119114  0.1773863726925335  0.12716917697809668  1.0000
  C   C28       1.0  0.45636406514398253  0.8226136271734207  0.8728308233573786  1.0000
  N   N1        1.0  0.6603541220636548  0.9231892882424181  0.5729731690850106  1.0000
  N   N2        1.0  0.33964587818390246  0.07681071162929158  0.4270268306874711  1.0000
  N   N3        1.0  0.35142183376889663  0.7181577477103461  0.58943300279355  1.0000
  N   N4        1.0  0.6485781664869972  0.2818422521556081  0.4105669975419254  1.0000
  N   N5        1.0  0.6885610247442685  0.6057516293974876  0.5772856175937275  1.0000
  N   N6        1.0  0.31143897551162525  0.39424837046846656  0.4227143827417478  1.0000
  N   N7        1.0  0.40119199286344  0.9891751270144399  0.00837283800049842  1.0000
  N   N8        1.0  0.5988080075676202  0.010824874248231246  0.9916271617889886  1.0000
  O   O1        1.0  0.5463517323677313  0.749045802318911  0.3937887107426597  1.0000
  O   O2        1.0  0.4536482680633289  0.25095419894376014  0.6062112890468273  1.0000
  O   O3        1.0  0.9164211327984522  0.6482335967209545  0.4346037590702483  1.0000
  O   O4        1.0  0.08357886744910506  0.3517664031507553  0.5653962407022335  1.0000
  O   O5        1.0  0.8801856036208285  0.9703910771989596  0.39766765012452804  1.0000
  O   O6        1.0  0.11981439662672885  0.029608922672750213  0.6023323496479538  1.0000
  O   O7        1.0  0.8327757355493014  0.5877022773540045  0.0646936038526762  1.0000
  O   O8        1.0  0.167224263038363  0.41229772251336416  0.9353063958471662  1.0000
  S   S1        1.0  0.786822653641567  0.7732649987736429  0.38644226400757054  1.0000
  S   S2        1.0  0.2131773466143267  0.22673500109231146  0.6135577363279048  1.0000
