data_image0
_chemical_formula_structural       H108C104N24O12S4
_chemical_formula_sum              "H108 C104 N24 O12 S4"
_cell_length_a       7.469402477933702
_cell_length_b       30.44056172548497
_cell_length_c       11.364459145970585
_cell_angle_alpha    90.0
_cell_angle_beta     90.7401892631923
_cell_angle_gamma    90.0

_space_group_name_H-M_alt    "P 1"
_space_group_IT_number       1

loop_
  _space_group_symop_operation_xyz
  'x, y, z'

loop_
  _atom_site_type_symbol
  _atom_site_label
  _atom_site_symmetry_multiplicity
  _atom_site_fract_x
  _atom_site_fract_y
  _atom_site_fract_z
  _atom_site_occupancy
  H   H1        1.0  0.9033334239686562  0.14114639436508455  0.2834079632762784  1.0000
  H   H2        1.0  0.596666576047803  0.6411463942749914  0.21659203646771272  1.0000
  H   H3        1.0  0.09666657657798633  0.8588536057832382  0.7165920365082019  1.0000
  H   H4        1.0  0.4033334244988394  0.35885360587333137  0.7834079633167674  1.0000
  H   H5        1.0  0.19401030679347483  0.15073711784229227  0.6137635406136259  1.0000
  H   H6        1.0  0.30598969294444406  0.6507371180807082  0.8862364591999792  1.0000
  H   H7        1.0  0.8059896924142608  0.8492628819775214  0.3862364591594901  1.0000
  H   H8        1.0  0.6940103076021985  0.3492628820676146  0.11376354058450094  1.0000
  H   H9        1.0  0.798375714429432  0.006933785976205973  0.4782842332501843  1.0000
  H   H10       1.0  0.7016242855870272  0.5069337858861128  0.021715766493806757  1.0000
  H   H11       1.0  0.20162428477830363  0.9930662138436078  0.5217157665229318  1.0000
  H   H12       1.0  0.2983757149596153  0.4930662139337009  0.9782842332906735  1.0000
  H   H13       1.0  0.9077804693819932  0.011459127237719942  0.6162222222179792  1.0000
  H   H14       1.0  0.5922195307685204  0.5114591274761359  0.8837777778930272  1.0000
  H   H15       1.0  0.09221952982574254  0.9885408725820938  0.383777777555137  1.0000
  H   H16       1.0  0.4077804697781285  0.48854087267218693  0.11622222277138931  1.0000
  H   H17       1.0  0.1232056321007122  0.07276116616946932  0.6555080137670195  1.0000
  H   H18       1.0  0.3767943689761136  0.5727611660793762  0.8444919860579501  1.0000
  H   H19       1.0  0.8767943684459303  0.9272388339788534  0.3444919860174608  1.0000
  H   H20       1.0  0.6232056315705289  0.42723883374043753  0.1555080137265303  1.0000
  H   H21       1.0  0.8353101327429592  0.0632212025965608  0.32534165036637097  1.0000
  H   H22       1.0  0.6646898672735002  0.5632212025064677  0.17465834937762004  1.0000
  H   H23       1.0  0.16468986780368342  0.936778797551762  0.6746583494181092  1.0000
  H   H24       1.0  0.33531013193423553  0.43677879731334607  0.8253416503954961  1.0000
  H   H25       1.0  0.46346731024560855  0.21904200356518785  0.42200059057103384  1.0000
  H   H26       1.0  0.036532689358262475  0.7190420034750947  0.07799940975549244  1.0000
  H   H27       1.0  0.5365326903010403  0.7809579965831349  0.5779994100933828  1.0000
  H   H28       1.0  0.9634673098494732  0.280957996344719  0.9220005900176236  1.0000
  H   H29       1.0  0.701462459871598  0.22091256234506507  0.4219930416717186  1.0000
  H   H30       1.0  0.7985375401448676  0.7209125622549719  0.07800695895220879  1.0000
  H   H31       1.0  0.29853754067505084  0.7790874378032577  0.5780069589926979  1.0000
  H   H32       1.0  0.20146246040177498  0.27908743789335083  0.9219930408322715  1.0000
  H   H33       1.0  0.732613830813406  0.25337587983938953  0.1257584943564427  1.0000
  H   H34       1.0  0.7673861692030532  0.7533758797492963  0.3742415053875484  1.0000
  H   H35       1.0  0.2673861683943296  0.7466241199804242  0.8742415054166734  1.0000
  H   H36       1.0  0.23261383134358926  0.24662412007051732  0.625758494396932  1.0000
  H   H37       1.0  0.8529879437956049  0.2327634566634173  0.24719644705845223  1.0000
  H   H38       1.0  0.6470120548819475  0.7327634565733241  0.25280355267417476  1.0000
  H   H39       1.0  0.1470120554121308  0.7672365434849054  0.7528035527146638  1.0000
  H   H40       1.0  0.3529879443257881  0.2672365432464896  0.7471964470989414  1.0000
  H   H41       1.0  0.42172318232848427  0.25242180644672657  0.12505888729535983  1.0000
  H   H42       1.0  0.07827681727538677  0.7524218063566335  0.3749411130311664  1.0000
  H   H43       1.0  0.5782768168792515  0.7475781937015963  0.8749411124777563  1.0000
  H   H44       1.0  0.9217231832712621  0.24757819379168938  0.6250588876332501  1.0000
  H   H45       1.0  0.30422826400416986  0.2350717067750167  0.2500177831100886  1.0000
  H   H46       1.0  0.19577173559970112  0.7350717070134326  0.24998221721643765  1.0000
  H   H47       1.0  0.6957717365424726  0.764928293044797  0.7499822166743917  1.0000
  H   H48       1.0  0.8042282636080409  0.2649282931348902  0.7500177834366147  1.0000
  H   H49       1.0  0.6242931049725875  0.07256778636087428  0.5796439222306764  1.0000
  H   H50       1.0  0.8757068951779262  0.5725677862707812  0.9203560778803301  1.0000
  H   H51       1.0  0.3757068955740551  0.9274322137874486  0.4203560775538039  1.0000
  H   H52       1.0  0.12429310402981586  0.4274322135490326  0.07964392277272239  1.0000
  H   H53       1.0  0.5912218110913051  0.8679511842871247  0.639823388905278  1.0000
  H   H54       1.0  0.9087781890592085  0.36795118437721785  0.8601766112057285  1.0000
  H   H55       1.0  0.40877818945534383  0.1320488158611981  0.36017661175913857  1.0000
  H   H56       1.0  0.09122181148743407  0.632048815771105  0.1398233885787518  1.0000
  H   H57       1.0  0.629517952869  0.9474501157399556  0.5908835766474  1.0000
  H   H58       1.0  0.8704820472815135  0.44745011550153974  0.9091164234636065  1.0000
  H   H59       1.0  0.37048204633874204  0.05254988440836713  0.4091164240056525  1.0000
  H   H60       1.0  0.129517953265129  0.552549884318274  0.09088357632087374  1.0000
  H   H61       1.0  0.5789689817355684  0.20921583272453675  0.6758473371575848  1.0000
  H   H62       1.0  0.9210310184149451  0.7092158326344437  0.8241526629534216  1.0000
  H   H63       1.0  0.42103101747217353  0.790784167423786  0.32415266349546756  1.0000
  H   H64       1.0  0.07896898213169745  0.2907841675138792  0.17584733683105866  1.0000
  H   H65       1.0  0.336695085101411  0.9042214318586619  0.9640743184678143  1.0000
  H   H66       1.0  0.16330491463650795  0.404221431948755  0.5359256813457909  1.0000
  H   H67       1.0  0.6633049154452315  0.09577856796115183  0.035925681316665896  1.0000
  H   H68       1.0  0.8366950845712278  0.5957785681995678  0.46407431842732516  1.0000
  H   H69       1.0  0.4183684207120104  0.18819698012352395  0.857282074759974  1.0000
  H   H70       1.0  0.08163157902591478  0.6881969800334309  0.6427179259335675  1.0000
  H   H71       1.0  0.5816315784957314  0.8118030196962898  0.14271792589307833  1.0000
  H   H72       1.0  0.9183684215207342  0.31180301978638286  0.3572820747308491  1.0000
  H   H73       1.0  0.37311116758548185  0.983596984839247  0.9138658057117834  1.0000
  H   H74       1.0  0.12688883349134397  0.48359698460083095  0.586134194113186  1.0000
  H   H75       1.0  0.6268888329611607  0.016403015309075904  0.08613419407269679  1.0000
  H   H76       1.0  0.8731111670552987  0.5164030152189828  0.4138658056712943  1.0000
  H   H77       1.0  0.36156828821554754  0.10849952211081876  0.8997612759603847  1.0000
  H   H78       1.0  0.13843171286127823  0.6084995220207257  0.6002387238645847  1.0000
  H   H79       1.0  0.638431712331095  0.891500478037504  0.10023872382409543  1.0000
  H   H80       1.0  0.8615682876853643  0.39150047812759714  0.3997612759198957  1.0000
  H   H81       1.0  0.6811455028960135  0.15142261340535643  0.5358505970196754  1.0000
  H   H82       1.0  0.8188544972545  0.6514226133152633  0.964149403091331  1.0000
  H   H83       1.0  0.318854497650629  0.8485773867429663  0.46414940276480476  1.0000
  H   H84       1.0  0.1811455032921489  0.34857738650455045  0.03585059757308555  1.0000
  H   H85       1.0  0.44691659305532155  0.8467393191506343  0.8282140678114528  1.0000
  H   H86       1.0  0.05308340668259735  0.3467393192407274  0.6717859320021524  1.0000
  H   H87       1.0  0.553083407491321  0.1532606806691795  0.17178593197302738  1.0000
  H   H88       1.0  0.9469165925251383  0.6532606809075955  0.3282140677709636  1.0000
  H   H89       1.0  0.886996842271247  0.04915911452275144  0.8344728253255337  1.0000
  H   H90       1.0  0.6130031578792666  0.5491591144326584  0.6655271747854727  1.0000
  H   H91       1.0  0.11300315827540196  0.9508408856255713  0.16552717533888286  1.0000
  H   H92       1.0  0.386996842667376  0.45084088538715544  0.3344728249990075  1.0000
  H   H93       1.0  0.16719985470040513  0.07594045309829679  0.1596669302090961  1.0000
  H   H94       1.0  0.3328001449034595  0.5759404530082036  0.3403330692374938  1.0000
  H   H95       1.0  0.8328001445073305  0.924059546721517  0.8403330695640199  1.0000
  H   H96       1.0  0.6671998556431831  0.4240595468116101  0.6596669305469864  1.0000
  H   H97       1.0  0.8674545633863878  0.12975434276211842  0.7938744347892281  1.0000
  H   H98       1.0  0.6325454354252189  0.6297543426720253  0.706125565310414  1.0000
  H   H99       1.0  0.13254543582134778  0.8702456573862044  0.20612556498388787  1.0000
  H   H100      1.0  0.36745456378251684  0.3702456574762975  0.293874434462702  1.0000
  H   H101      1.0  0.14299366119983611  0.1565566983611264  0.12201786019117203  1.0000
  H   H102      1.0  0.3570063397429419  0.6565566982710332  0.3779821401467183  1.0000
  H   H103      1.0  0.8570063393468065  0.8434433017871964  0.8779821395933082  1.0000
  H   H104      1.0  0.6429936608037071  0.34344330154878044  0.6220178605176983  1.0000
  H   H105      1.0  0.9932147200674805  0.1833381335183323  0.9381302355363189  1.0000
  H   H106      1.0  0.5067852800830333  0.6833381337567482  0.5618697645746876  1.0000
  H   H107      1.0  0.006785280479168536  0.8166618663014814  0.06186976512809768  1.0000
  H   H108      1.0  0.49321472046360937  0.31666186639157456  0.43813023520979266  1.0000
  C   C1        1.0  0.04990405744402897  0.15061626593314634  0.4470604701139375  1.0000
  C   C2        1.0  0.450095942159842  0.6506162661715622  0.05293953021258867  1.0000
  C   C3        1.0  0.9500959417637131  0.8493837338866674  0.5529395305391149  1.0000
  C   C4        1.0  0.5499040570478936  0.34938373397676054  0.9470604695605275  1.0000
  C   C5        1.0  0.9713786958728295  0.06277672328234787  0.49450037125060053  1.0000
  C   C6        1.0  0.5286213041436361  0.5627767231922547  0.005499629373326899  1.0000
  C   C7        1.0  0.028621303334906045  0.937223276537466  0.5054996285225156  1.0000
  C   C8        1.0  0.4713786964030128  0.437223276627559  0.9945003712910897  1.0000
  C   C9        1.0  0.9508026381523598  0.1261664667897587  0.36499636080804915  1.0000
  C   C10       1.0  0.5491973618641058  0.6261664666996656  0.13500363981587823  1.0000
  C   C11       1.0  0.04919736239428916  0.8738335330300551  0.6350036398563674  1.0000
  C   C12       1.0  0.4508026373436297  0.37383353312014816  0.8649963599572379  1.0000
  C   C13       1.0  0.1144804712345177  0.13154673971234687  0.5512943773670513  1.0000
  C   C14       1.0  0.3855195298423081  0.6315467396222537  0.948705622457918  1.0000
  C   C15       1.0  0.8855195293121249  0.8684532601074668  0.44870562241742884  1.0000
  C   C16       1.0  0.6144804707043344  0.36845326019756003  0.05129437732656217  1.0000
  C   C17       1.0  0.9263635303229293  0.015745047161818237  0.5210951106831432  1.0000
  C   C18       1.0  0.5736364698275842  0.5157450474002342  0.9789048894278632  1.0000
  C   C19       1.0  0.07363647022371328  0.9842549526579956  0.4789048891013371  1.0000
  C   C20       1.0  0.42636353071906463  0.4842549527480886  0.021095111236553263  1.0000
  C   C21       1.0  0.07490777735189978  0.08767159042816519  0.5738495602636472  1.0000
  C   C22       1.0  0.42509222238601907  0.587671590338072  0.9261504395499581  1.0000
  C   C23       1.0  0.9250922231947428  0.9123284097201576  0.4261504395208332  1.0000
  C   C24       1.0  0.5749077768217167  0.41232840948174165  0.07384956022315792  1.0000
  C   C25       1.0  0.9132405376049403  0.08229624678386545  0.3890050898608315  1.0000
  C   C26       1.0  0.586759462411519  0.5822962466937722  0.11099490988315953  1.0000
  C   C27       1.0  0.08675946294170218  0.9177037530359482  0.6109949099236488  1.0000
  C   C28       1.0  0.4132405381351236  0.4177037531260414  0.8890050899013207  1.0000
  C   C29       1.0  0.5789458214130244  0.23487591800956137  0.26613709980941835  1.0000
  C   C30       1.0  0.9210541786034414  0.7348759179194682  0.23386290081450903  1.0000
  C   C31       1.0  0.4210541777947177  0.7651240821387614  0.7338629008436341  1.0000
  C   C32       1.0  0.07894582194320758  0.2651240819003455  0.7661370998499075  1.0000
  C   C33       1.0  0.5807377831942682  0.09816970254849627  0.6395611829877027  1.0000
  C   C34       1.0  0.9192622169562454  0.5981697027869122  0.8604388171233037  1.0000
  C   C35       1.0  0.4192622173523808  0.9018302972713175  0.3604388176767139  1.0000
  C   C36       1.0  0.08073778359039714  0.4018302973614106  0.13956118266117648  1.0000
  C   C37       1.0  0.49199145759814616  0.08626177905914334  0.7431413750436467  1.0000
  C   C38       1.0  0.00800854213977911  0.5862617792975593  0.7568586256498948  1.0000
  C   C39       1.0  0.5080085416095959  0.9137382207606705  0.2568586256094056  1.0000
  C   C40       1.0  0.9919914584068699  0.4137382208507635  0.24314137501452182  1.0000
  C   C41       1.0  0.5438651230878164  0.893099393341332  0.6999867970045892  1.0000
  C   C42       1.0  0.9561348770626972  0.39309939310291614  0.8000132031064171  1.0000
  C   C43       1.0  0.4561348774588262  0.10690060680699072  0.300013202779891  1.0000
  C   C44       1.0  0.04386512214503852  0.6069006067168976  0.19998679666669883  1.0000
  C   C45       1.0  0.5651580151273138  0.9373443567604013  0.6720311295768944  1.0000
  C   C46       1.0  0.9348419850231998  0.4373443568504944  0.8279688705341121  1.0000
  C   C47       1.0  0.4348419854193288  0.06265564305941249  0.3279688702075858  1.0000
  C   C48       1.0  0.06515801418454227  0.5626556432978285  0.1720311301189404  1.0000
  C   C49       1.0  0.5025130968353463  0.9698678551415477  0.7489678860519912  1.0000
  C   C50       1.0  0.9974869033151673  0.4698678552316409  0.7510321140590154  1.0000
  C   C51       1.0  0.4974869037112963  0.030132145006775062  0.25103211373248907  1.0000
  C   C52       1.0  0.002513095892574717  0.5301321449166819  0.24896788659403707  1.0000
  C   C53       1.0  0.5538912234663984  0.1746616162325531  0.6943347654317104  1.0000
  C   C54       1.0  0.9461087766841152  0.6746616161424599  0.8056652346792961  1.0000
  C   C55       1.0  0.4461087757413372  0.8253383839157696  0.3056652343414058  1.0000
  C   C56       1.0  0.053891223862533776  0.32533838400586285  0.19433476598512045  1.0000
  C   C57       1.0  0.4002259274646081  0.9137223035116928  0.8821741303281985  1.0000
  C   C58       1.0  0.09977407227331077  0.413722303601786  0.6178258694854067  1.0000
  C   C59       1.0  0.5997740717431276  0.08627769630812086  0.11782586944491762  1.0000
  C   C60       1.0  0.9002259282733318  0.5862776962180277  0.3821741302990735  1.0000
  C   C61       1.0  0.46364718194034743  0.16291037480587076  0.7966154195971299  1.0000
  C   C62       1.0  0.036352817797571504  0.6629103750442867  0.7033845802164754  1.0000
  C   C63       1.0  0.5363528186062952  0.837089625013943  0.2033845801873504  1.0000
  C   C64       1.0  0.9636471814101641  0.3370896251040361  0.29661541955664067  1.0000
  C   C65       1.0  0.4197011457193507  0.9579387106246124  0.8548664658057262  1.0000
  C   C66       1.0  0.08029885535747516  0.4579387103861965  0.6451335340192431  1.0000
  C   C67       1.0  0.5802988548272919  0.042061289523710375  0.14513353397875392  1.0000
  C   C68       1.0  0.9197011451891673  0.5420612894336173  0.35486646576523717  1.0000
  C   C69       1.0  0.4316313183432545  0.11872990494042598  0.8208396752879967  1.0000
  C   C70       1.0  0.06836868139466437  0.6187299048503329  0.6791603245256085  1.0000
  C   C71       1.0  0.5683686808644811  0.8812700952078968  0.17916032448511926  1.0000
  C   C72       1.0  0.9316313191519782  0.3812700949694809  0.3208396752588718  1.0000
  C   C73       1.0  0.6114370187808453  0.14224842954769795  0.6158088478583806  1.0000
  C   C74       1.0  0.8885629813696618  0.6422484294576049  0.8841911513726896  1.0000
  C   C75       1.0  0.38856298176579723  0.8577515706006248  0.38419115192609954  1.0000
  C   C76       1.0  0.11143701783807382  0.3577515703622089  0.11580884840042666  1.0000
  C   C77       1.0  0.4621355889343474  0.8812885222660128  0.8052153780235325  1.0000
  C   C78       1.0  0.03786441080357789  0.381288522356106  0.6947846226700092  1.0000
  C   C79       1.0  0.5378644116123016  0.1187114775538009  0.19478462264088417  1.0000
  C   C80       1.0  0.962135588404164  0.6187114777922168  0.3052153779830432  1.0000
  C   C81       1.0  0.02760020402483268  0.05799135988092138  3.8317208608880806e-05  1.0000
  C   C82       1.0  0.47239979557903833  0.5579913597908283  0.49996168311791733  1.0000
  C   C83       1.0  0.97239979652181  0.9420086402674014  0.9999616825758714  1.0000
  C   C84       1.0  0.5276002036287037  0.44200864035749454  0.5000383175351351  1.0000
  C   C85       1.0  0.9434643746796614  0.07306104631236295  0.8960100443705218  1.0000
  C   C86       1.0  0.5565356254708522  0.5730610462222698  0.6039899557404848  1.0000
  C   C87       1.0  0.05653562586698119  0.9269389538359599  0.10398995541395847  1.0000
  C   C88       1.0  0.44346437373688985  0.426938953926053  0.3960100449125678  1.0000
  C   C89       1.0  0.10114566327416212  0.08825953194387699  0.0803025476994604  1.0000
  C   C90       1.0  0.3988543363297025  0.5882595318537839  0.41969745174712947  1.0000
  C   C91       1.0  0.8988543372724804  0.9117404678759368  0.9196974520850199  1.0000
  C   C92       1.0  0.6011456628780331  0.4117404679660299  0.5803025480259866  1.0000
  C   C93       1.0  0.9322806842262739  0.11795737418977587  0.8743745646111033  1.0000
  C   C94       1.0  0.5677193159242399  0.6179573740996827  0.6256254354999029  1.0000
  C   C95       1.0  0.06771931632036879  0.8820426259585469  0.12562543517337674  1.0000
  C   C96       1.0  0.43228068462240277  0.38204262572013103  0.3743745642845772  1.0000
  C   C97       1.0  0.08752831486736427  0.13323859416839928  0.058574764957422205  1.0000
  C   C98       1.0  0.41247168473650675  0.6332385940783061  0.441425235369104  1.0000
  C   C99       1.0  0.9124716856792783  0.8667614059799235  0.941425234827058  1.0000
  C   C100      1.0  0.5875283144712352  0.3667614060700166  0.5585747652839484  1.0000
  C   C101      1.0  0.0032049259876512698  0.14817333828054186  0.9556979208896831  1.0000
  C   C102      1.0  0.49679507375026766  0.6481733381904488  0.5443020789239221  1.0000
  C   C103      1.0  0.9967950732200843  0.8518266618677809  0.044302078883433085  1.0000
  C   C104      1.0  0.503204926796375  0.351826661629365  0.455697920860558  1.0000
  N   N1        1.0  0.581570205648838  0.22029895277476721  0.3772627912447455  1.0000
  N   N2        1.0  0.9184297943676214  0.720298952684674  0.12273720849924562  1.0000
  N   N3        1.0  0.4184297935588977  0.7797010473735556  0.6227372085283707  1.0000
  N   N4        1.0  0.08157020617902119  0.2797010474636487  0.8772627912852344  1.0000
  N   N5        1.0  0.732497843999971  0.24050487491072609  0.2089986934819649  1.0000
  N   N6        1.0  0.7675021560164947  0.740504874820633  0.2910013071419625  1.0000
  N   N7        1.0  0.2675021552077711  0.7594951252375967  0.7910013071710875  1.0000
  N   N8        1.0  0.23249784453015418  0.25949512499918076  0.708998693522454  1.0000
  N   N9        1.0  0.42290582925536147  0.24325220594732733  0.21179973276695244  1.0000
  N   N10       1.0  0.07709417034850954  0.7432522058572342  0.2882002675595738  1.0000
  N   N11       1.0  0.5770941699523742  0.7567477942009955  0.7882002670061637  1.0000
  N   N12       1.0  0.922905830198133  0.25674779429108857  0.7117997322249064  1.0000
  N   N13       1.0  0.45756058762929547  0.0424428866211869  0.7769763191271545  1.0000
  N   N14       1.0  0.04243941210862343  0.5424428865310937  0.7230236806864507  1.0000
  N   N15       1.0  0.5424394115784402  0.9575571135271359  0.22302368064596154  1.0000
  N   N16       1.0  0.9575605884380192  0.45755711328871995  0.2769763190980295  1.0000
  N   N17       1.0  0.5319289059983527  0.013683377913860227  0.7133927827815071  1.0000
  N   N18       1.0  0.9680710941521609  0.513683377823767  0.7866072173294992  1.0000
  N   N19       1.0  0.4680710945482898  0.9863166222344626  0.28660721700297304  1.0000
  N   N20       1.0  0.03192890639448168  0.48631662232455564  0.21339278245498094  1.0000
  N   N21       1.0  0.045214437504290536  0.013198039629592258  0.03164164319616176  1.0000
  N   N22       1.0  0.4547855620995805  0.5131980395394992  0.4683583571303645  1.0000
  N   N23       1.0  0.954785563042352  0.9868019601902215  0.9683583565883185  1.0000
  N   N24       1.0  0.5452144371081552  0.48680196028031464  0.5316416426427517  1.0000
  O   O1        1.0  0.08298874604317018  0.21497806147648355  0.2962832754901189  1.0000
  O   O2        1.0  0.41701125356069446  0.7149780617148995  0.203716723956471  1.0000
  O   O3        1.0  0.9170112531645654  0.7850219383433302  0.7037167242829971  1.0000
  O   O4        1.0  0.5829887469859482  0.2850219384334233  0.7962832758280093  1.0000
  O   O5        1.0  0.2460436086122577  0.22043393747173357  0.4849384401629227  1.0000
  O   O6        1.0  0.25395639099160694  0.7204339373816404  0.015061559283667168  1.0000
  O   O7        1.0  0.7539563919343848  0.7795660626765892  0.5150615596215575  1.0000
  O   O8        1.0  0.7460436082161287  0.27956606276668233  0.9849384404894489  1.0000
  O   O9        1.0  0.9225445610459906  0.22949772454925685  0.4774405768283784  1.0000
  O   O10       1.0  0.5774554389704689  0.7294977244591637  0.022559422915612585  1.0000
  O   O11       1.0  0.07745543950065206  0.7705022755990659  0.5225594229561017  1.0000
  O   O12       1.0  0.4225445602372668  0.2705022756891591  0.9774405768575036  1.0000
  S   S1        1.0  0.0787109647336431  0.20751933577859621  0.42436121119659714  1.0000
  S   S2        1.0  0.4212890348702279  0.707519335688503  0.0756387891299291  1.0000
  S   S3        1.0  0.9212890344740925  0.7924806643697265  0.575638788576519  1.0000
  S   S4        1.0  0.5787109643375141  0.2924806644598197  0.9243612115231233  1.0000
