data_image0
_chemical_formula_structural       H124C112N16O12S4
_chemical_formula_sum              "H124 C112 N16 O12 S4"
_cell_length_a       7.585464674559622
_cell_length_b       29.845436666137058
_cell_length_c       11.451068881173308
_cell_angle_alpha    90.0
_cell_angle_beta     90.72862814213794
_cell_angle_gamma    90.0

_space_group_name_H-M_alt    "P 1"
_space_group_IT_number       1

loop_
  _space_group_symop_operation_xyz
  'x, y, z'

loop_
  _atom_site_type_symbol
  _atom_site_label
  _atom_site_symmetry_multiplicity
  _atom_site_fract_x
  _atom_site_fract_y
  _atom_site_fract_z
  _atom_site_occupancy
  H   H1        1.0  0.826323008978352  0.14689107916367544  0.07891093825002245  1.0000
  H   H2        1.0  0.6736769916461784  0.6468910790608614  0.4210890614947978  1.0000
  H   H3        1.0  0.17367699170138914  0.8531089209657562  0.9210890611451867  1.0000
  H   H4        1.0  0.3263230090332125  0.3531089207335106  0.5789109387736893  1.0000
  H   H5        1.0  0.1072180946257385  0.13831224170640663  0.7530079330869001  1.0000
  H   H6        1.0  0.39278190610886315  0.6383122416035927  0.746992066831976  1.0000
  H   H7        1.0  0.8927819060540025  0.8616877584230249  0.24699206630830922  1.0000
  H   H8        1.0  0.6072180945705279  0.36168775852583895  0.2530079334365111  1.0000
  H   H9        1.0  0.1493947996759468  0.056437166218818585  0.7847308329243687  1.0000
  H   H10       1.0  0.35060520105865484  0.5564371661160046  0.7152691669945074  1.0000
  H   H11       1.0  0.8506052010037943  0.9435628339106129  0.21526916647084043  1.0000
  H   H12       1.0  0.6493947996207362  0.443562834013427  0.2847308332739799  1.0000
  H   H13       1.0  0.8702808638947759  0.0653837379506022  0.10966005816838194  1.0000
  H   H14       1.0  0.6297191367297545  0.5653837378477882  0.39033994157643837  1.0000
  H   H15       1.0  0.12971913678461514  0.9346162621788293  0.8903399421001053  1.0000
  H   H16       1.0  0.3702808639499865  0.43461626228164335  0.6096600578187709  1.0000
  H   H17       1.0  0.8187113621187078  0.27476989871971  0.4012529203281034  1.0000
  H   H18       1.0  0.6812886371874054  0.774769898616896  0.09874707940537894  1.0000
  H   H19       1.0  0.18128863724261593  0.7252301014097216  0.598747079055768  1.0000
  H   H20       1.0  0.3187113621735683  0.22523010151253553  0.9012529208517702  1.0000
  H   H21       1.0  0.053564143275585195  0.27707983945776  0.40322927332662734  1.0000
  H   H22       1.0  0.4464358557455179  0.777079839354946  0.09677072723291724  1.0000
  H   H23       1.0  0.9464358560853885  0.7229201606716715  0.5967707269305219  1.0000
  H   H24       1.0  0.5535641436154558  0.222920160439426  0.903229273024232  1.0000
  H   H25       1.0  0.09524040534974242  0.24200982015435427  0.10994794420166787  1.0000
  H   H26       1.0  0.40475959367136066  0.7420098203865998  0.3900520563578767  1.0000
  H   H27       1.0  0.9047595940112312  0.7579901796400177  0.8900520560554814  1.0000
  H   H28       1.0  0.595240405689613  0.2579901797428317  0.6099479438992724  1.0000
  H   H29       1.0  0.20945483567537268  0.2594463661771656  0.23602221890789418  1.0000
  H   H30       1.0  0.2905451646644978  0.7594463660743517  0.26397778078971046  1.0000
  H   H31       1.0  0.7905451650040184  0.7405536339522659  0.763977781360593  1.0000
  H   H32       1.0  0.7094548346968258  0.24055363405507998  0.736022218594161  1.0000
  H   H33       1.0  0.7887345705274995  0.24039822269179903  0.10544708321238572  1.0000
  H   H34       1.0  0.7112654300970309  0.740398222588985  0.39455291653243457  1.0000
  H   H35       1.0  0.2112654301518916  0.7596017774376326  0.8945529170561016  1.0000
  H   H36       1.0  0.2887345692642927  0.25960177754044655  0.6054470828514368  1.0000
  H   H37       1.0  0.6702089912495316  0.2601950625440495  0.22571160941181376  1.0000
  H   H38       1.0  0.8297910093746487  0.7601950624412355  0.2742883912062845  1.0000
  H   H39       1.0  0.32979100942985934  0.7398049375853821  0.7742883908566734  1.0000
  H   H40       1.0  0.17020898998632497  0.2398049373531365  0.7257116090508647  1.0000
  H   H41       1.0  0.4211446270564128  0.02319622620182644  0.5488536036947986  1.0000
  H   H42       1.0  0.07885537367783875  0.523196226434072  0.9511463970973553  1.0000
  H   H43       1.0  0.5788553736229782  0.9768037735925456  0.45114639657368855  1.0000
  H   H44       1.0  0.9211446270015523  0.47680377369535953  0.04885360317113175  1.0000
  H   H45       1.0  0.6010456753612199  0.930214637519437  0.9821693374475811  1.0000
  H   H46       1.0  0.8989543243396244  0.4302146376222511  0.5178306625071728  1.0000
  H   H47       1.0  0.3989543239997538  0.0697853622749349  0.01783066280956814  1.0000
  H   H48       1.0  0.1010456750213493  0.5697853625071805  0.48216933774997645  1.0000
  H   H49       1.0  0.42215784673588436  0.8179931171085748  0.6826180013344508  1.0000
  H   H50       1.0  0.07784215268029988  0.3179931172113887  0.8173819985730874  1.0000
  H   H51       1.0  0.5778421526254393  0.18200688302085688  0.3173819980494205  1.0000
  H   H52       1.0  0.9221578466806737  0.6820068829180428  0.18261800168406184  1.0000
  H   H53       1.0  0.6617622080484458  0.07034533029238939  0.867718625962161  1.0000
  H   H54       1.0  0.8382377916523984  0.5703453301895753  0.6322813739925928  1.0000
  H   H55       1.0  0.33823779131252785  0.9296546698370423  0.13228137429498815  1.0000
  H   H56       1.0  0.16176220902734267  0.4296546699398562  0.36771862540261646  1.0000
  H   H57       1.0  0.3442180486225507  0.10111038125382481  0.49370510575059645  1.0000
  H   H58       1.0  0.15578195039855247  0.6011103811510108  0.006294894808948184  1.0000
  H   H59       1.0  0.6557819507384229  0.8988896188756067  0.5062948945065529  1.0000
  H   H60       1.0  0.8442180489624211  0.3988896186433612  0.9937051054482009  1.0000
  H   H61       1.0  0.6729929653564514  0.8504000683225736  0.012266542533697111  1.0000
  H   H62       1.0  0.8270070339496616  0.3504000680903281  0.4877334571997852  1.0000
  H   H63       1.0  0.3270070340045222  0.1495999318068579  0.9877334577234521  1.0000
  H   H64       1.0  0.17299296541131198  0.649599931704044  0.512266543057364  1.0000
  H   H65       1.0  0.5827004867637315  0.7935144636992608  0.8629151191481549  1.0000
  H   H66       1.0  0.9172995142555299  0.2935144638020748  0.637084880817937  1.0000
  H   H67       1.0  0.41729951391600945  0.20648553609511125  0.13708488024705442  1.0000
  H   H68       1.0  0.08270048642386103  0.7064855359922972  0.36291511945055016  1.0000
  H   H69       1.0  0.3491811507717409  0.8979877862001098  0.6533336737844345  1.0000
  H   H70       1.0  0.15081884864444342  0.39798778596786416  0.8466663261231037  1.0000
  H   H71       1.0  0.6508188485895828  0.10201221392932185  0.3466663255994368  1.0000
  H   H72       1.0  0.8491811507165302  0.6020122138265078  0.15333367413404558  1.0000
  H   H73       1.0  0.431247330874748  0.16420111773939408  0.6242202535057892  1.0000
  H   H74       1.0  0.06875266985950358  0.6642011176365801  0.8757797472863649  1.0000
  H   H75       1.0  0.5687526698046431  0.8357988823900375  0.375779746762698  1.0000
  H   H76       1.0  0.9312473308198874  0.3357988824928515  0.12422025298212233  1.0000
  H   H77       1.0  0.39352055460643093  0.9849421792294646  0.8784688702125151  1.0000
  H   H78       1.0  0.10647944612817072  0.484942178997219  0.621531129706361  1.0000
  H   H79       1.0  0.6064794460729601  0.015057820899967  0.12153113005597213  1.0000
  H   H80       1.0  0.8935205545512204  0.515057820797153  0.37846887056212614  1.0000
  H   H81       1.0  0.31704531864973096  0.972120077335603  0.7361798765299021  1.0000
  H   H82       1.0  0.18295468076645335  0.4721200774384171  0.7638201233776359  1.0000
  H   H83       1.0  0.6829546807115928  0.027879922793828518  0.26382012285396905  1.0000
  H   H84       1.0  0.8170453185945203  0.5278799226910146  0.23617987687951328  1.0000
  H   H85       1.0  0.5878969351523152  0.14815446258881332  0.8131035483997803  1.0000
  H   H86       1.0  0.912103064548529  0.6481544624859994  0.6868964515549736  1.0000
  H   H87       1.0  0.4121030655274259  0.8518455375406182  0.18689645099542904  1.0000
  H   H88       1.0  0.08789693481244465  0.3518455376434323  0.31310354870217555  1.0000
  H   H89       1.0  0.7003301378957303  0.992361017240678  0.8070302047339721  1.0000
  H   H90       1.0  0.7996698631235313  0.4923610170084324  0.6929697952321199  1.0000
  H   H91       1.0  0.2996698627836607  0.007638982888753591  0.1929697955345152  1.0000
  H   H92       1.0  0.2003301375558597  0.5076389827859397  0.30703020503636735  1.0000
  H   H93       1.0  0.6320410209010149  0.9748010624019326  0.6663911366860195  1.0000
  H   H94       1.0  0.8679589787998294  0.4748010621696871  0.8336088632687343  1.0000
  H   H95       1.0  0.3679589784599588  0.025198937727498896  0.3336088635711298  1.0000
  H   H96       1.0  0.13204102056149444  0.5251989376246848  0.16639113611513692  1.0000
  H   H97       1.0  0.06852881971089891  0.048722988920108644  0.27978446901673043  1.0000
  H   H98       1.0  0.43147118062897166  0.5487229888172946  0.2202155306808742  1.0000
  H   H99       1.0  0.9314711796500748  0.951277011209323  0.7202155312404187  1.0000
  H   H100      1.0  0.5685288200507694  0.4512770109770774  0.779784468714335  1.0000
  H   H101      1.0  0.8814709567228642  0.9949842072068957  0.3917580113271367  1.0000
  H   H102      1.0  0.6185290425832487  0.49498420730970977  0.10824198840634565  1.0000
  H   H103      1.0  0.11852904263845944  0.005015792922535776  0.6082419880567346  1.0000
  H   H104      1.0  0.38147095677772486  0.5050157928197218  0.8917580118508036  1.0000
  H   H105      1.0  0.8085069747559539  0.009402214252686296  0.5329753252485271  1.0000
  H   H106      1.0  0.6914930249448902  0.5094022141498723  0.9670246747062268  1.0000
  H   H107      1.0  0.19149302460501966  0.9905977855416856  0.46702467500862216  1.0000
  H   H108      1.0  0.3085069744160835  0.4905977856444997  0.032975325550922446  1.0000
  H   H109      1.0  0.144744278399773  0.12824527457300572  0.24359026388797847  1.0000
  H   H110      1.0  0.3552557219400975  0.6282452744701917  0.25640973580962617  1.0000
  H   H111      1.0  0.8552557209612006  0.8717547255564259  0.7564097363691707  1.0000
  H   H112      1.0  0.6447442787396436  0.37175472532418025  0.743590263585583  1.0000
  H   H113      1.0  0.9219813214298246  0.1642441856299523  0.5755266263632266  1.0000
  H   H114      1.0  0.5780186782710196  0.6642441858621979  0.9244733735915273  1.0000
  H   H115      1.0  0.07801867924991653  0.8357558141644197  0.42447337303198257  1.0000
  H   H116      1.0  0.42198132108995395  0.3357558142672337  0.07552662666562202  1.0000
  H   H117      1.0  0.07162779829286985  0.1864370356595689  0.39118861228022217  1.0000
  H   H118      1.0  0.42837220204700066  0.6864370358918145  0.10881138741738249  1.0000
  H   H119      1.0  0.9283722023865212  0.8135629641348031  0.6088113879882651  1.0000
  H   H120      1.0  0.5716277973143231  0.31356296423761704  0.8911886119664887  1.0000
  H   H121      1.0  0.8498643358421415  0.08461828480685037  0.6118579670635805  1.0000
  H   H122      1.0  0.6501356651771201  0.5846182847040364  0.8881420329025113  1.0000
  H   H123      1.0  0.1501356648372495  0.9153817153225812  0.38814203320490676  1.0000
  H   H124      1.0  0.3498643355022709  0.41538171542539526  0.11185796736597584  1.0000
  C   C1        1.0  0.8980493634451064  0.1271799569381636  0.015136702751046265  1.0000
  C   C2        1.0  0.6019506358610066  0.6271799568353496  0.48486329698243613  1.0000
  C   C3        1.0  0.10195063591586717  0.872820043191268  0.984863297506103  1.0000
  C   C4        1.0  0.3980493635003171  0.3728200429590224  0.5151367024014352  1.0000
  C   C5        1.0  0.05590489631838597  0.12238854002576668  0.8309980440958725  1.0000
  C   C6        1.0  0.44409510441586564  0.6223885399229527  0.6690019566962815  1.0000
  C   C7        1.0  0.9440951043610051  0.8776114601036649  0.16900195617261465  1.0000
  C   C8        1.0  0.5559048962635253  0.3776114598714193  0.3309980435722057  1.0000
  C   C9        1.0  0.07897227086693376  0.07660137881627807  0.848363640989189  1.0000
  C   C10       1.0  0.4210277285492506  0.5766013787134641  0.6516363589183491  1.0000
  C   C11       1.0  0.9210277284940399  0.9233986213131535  0.15163635926796015  1.0000
  C   C12       1.0  0.5789722708120733  0.4233986210809079  0.3483636404655222  1.0000
  C   C13       1.0  0.9213614884797237  0.0815993495837571  0.03215706041160672  1.0000
  C   C14       1.0  0.5786385108263894  0.581599349480943  0.46784293932187565  1.0000
  C   C15       1.0  0.0786385108816001  0.9184006505456745  0.9678429389722646  1.0000
  C   C16       1.0  0.42136148853458416  0.4184006503134289  0.5321570609352736  1.0000
  C   C17       1.0  0.9652234878059461  0.14727226239537894  0.9143833747712814  1.0000
  C   C18       1.0  0.5347765132133155  0.647272262292565  0.5856166251948104  1.0000
  C   C19       1.0  0.03477651287344491  0.8527277377340526  0.08561662549720579  1.0000
  C   C20       1.0  0.4652234874660756  0.3527277378368667  0.4143833750736768  1.0000
  C   C21       1.0  0.010677948694305836  0.055977887631162584  0.948369684166557  1.0000
  C   C22       1.0  0.48932205072187845  0.5559778878634082  0.5516303157409812  1.0000
  C   C23       1.0  0.9893220506666678  0.9440221121632094  0.05163031609059234  1.0000
  C   C24       1.0  0.5106779486394453  0.4440221122660234  0.44836968364289  1.0000
  C   C25       1.0  0.9393826727452003  0.258162517646865  0.24869879696567213  1.0000
  C   C26       1.0  0.5606173278793303  0.7581625178791106  0.25130120277914825  1.0000
  C   C27       1.0  0.06061732661577345  0.741837482147507  0.751301203291477  1.0000
  C   C28       1.0  0.4393826728004109  0.24183748225032098  0.7486987966160611  1.0000
  C   C29       1.0  0.4582724114109893  0.05072385091680226  0.6066022107444194  1.0000
  C   C30       1.0  0.041727588005195014  0.5507238508139883  0.8933977891631185  1.0000
  C   C31       1.0  0.5417275879503344  0.9492761492126293  0.3933977886394517  1.0000
  C   C32       1.0  0.9582724113557787  0.44927614931544335  0.10660221109403062  1.0000
  C   C33       1.0  0.5617240805658762  0.9056763572391912  0.9161160253330525  1.0000
  C   C34       1.0  0.9382759204530353  0.4056763573420052  0.5838839755063173  1.0000
  C   C35       1.0  0.43827592011351474  0.09432364255518083  0.08388397493543473  1.0000
  C   C36       1.0  0.06172408022635576  0.5943236427874264  0.4161160247621699  1.0000
  C   C37       1.0  0.4701519782737122  0.9197752318747708  0.8156340587266122  1.0000
  C   C38       1.0  0.029848021142472064  0.4197752316425253  0.684365941180926  1.0000
  C   C39       1.0  0.5298480210872615  0.08022476825466074  0.1843659415305371  1.0000
  C   C40       1.0  0.9701519782185016  0.5802247681518468  0.3156340590762233  1.0000
  C   C41       1.0  0.4615846622006568  0.8424407450043283  0.74871064529382  1.0000
  C   C42       1.0  0.03841533721552746  0.34244074510714234  0.7512893546137182  1.0000
  C   C43       1.0  0.5384153371606669  0.15755925479004368  0.25128935409005126  1.0000
  C   C44       1.0  0.9615846621454461  0.6575592550222892  0.24871064564343112  1.0000
  C   C45       1.0  0.5929087684686168  0.07691982682916251  0.7853022660755898  1.0000
  C   C46       1.0  0.9070912325506446  0.5769198267263486  0.7146977338905021  1.0000
  C   C47       1.0  0.4070912322107741  0.923080173300269  0.21469773419289742  1.0000
  C   C48       1.0  0.09290876812909646  0.4230801730680235  0.28530226550470716  1.0000
  C   C49       1.0  0.41511871746017853  0.0945520506725174  0.5753464210833902  1.0000
  C   C50       1.0  0.08488128195600571  0.5945520509047629  0.924653578824148  1.0000
  C   C51       1.0  0.5848812819011452  0.9054479491218546  0.42465357830048117  1.0000
  C   C52       1.0  0.9151187174049679  0.4054479492246686  0.07534642143300121  1.0000
  C   C53       1.0  0.6020349453514648  0.8605446309030075  0.9333719747971615  1.0000
  C   C54       1.0  0.8979650543493795  0.36054463100582146  0.5666280251575924  1.0000
  C   C55       1.0  0.39796505400950877  0.13945536922642413  0.06662802545998768  1.0000
  C   C56       1.0  0.10203494501159428  0.6394553691236101  0.43337197509955694  1.0000
  C   C57       1.0  0.5516454062067371  0.8287991989095465  0.8497480315438368  1.0000
  C   C58       1.0  0.9483545934941071  0.3287991986773009  0.6502519684109169  1.0000
  C   C59       1.0  0.4483545931542366  0.17120080121988507  0.1502519687133124  1.0000
  C   C60       1.0  0.05164540718528386  0.6712008011170711  0.3497480318575702  1.0000
  C   C61       1.0  0.42097519977958303  0.8876321792958667  0.731997672713264  1.0000
  C   C62       1.0  0.07902479963660128  0.3876321793986806  0.7680023271942742  1.0000
  C   C63       1.0  0.5790247995813906  0.11236782083356499  0.2680023275438853  1.0000
  C   C64       1.0  0.9209751997247224  0.6123678207307509  0.23199767218959708  1.0000
  C   C65       1.0  0.5479565709680805  0.04118214398231769  0.7115130273017414  1.0000
  C   C66       1.0  0.9520434287327637  0.5411821438795036  0.7884869726530124  1.0000
  C   C67       1.0  0.4520434283928932  0.9588178561471139  0.28848697295540787  1.0000
  C   C68       1.0  0.04795657062856  0.4588178562499279  0.21151302673085878  1.0000
  C   C69       1.0  0.463094340716754  0.12990307407359533  0.6491302056144626  1.0000
  C   C70       1.0  0.03690566001784769  0.6299030743058409  0.8508697943044135  1.0000
  C   C71       1.0  0.5369056599626371  0.8700969257207767  0.35086979465402457  1.0000
  C   C72       1.0  0.9630943406615434  0.37009692582359066  0.14913020596407373  1.0000
  C   C73       1.0  0.430727748179887  0.9686483187830615  0.7961056935193022  1.0000
  C   C74       1.0  0.06927225123629731  0.4686483188858755  0.7038943063882359  1.0000
  C   C75       1.0  0.5692722511814368  0.03135168101131052  0.2038943058645691  1.0000
  C   C76       1.0  0.9307277481246764  0.5313516812435561  0.2961056938689133  1.0000
  C   C77       1.0  0.5514858146767043  0.12095147577772829  0.7542563131955  1.0000
  C   C78       1.0  0.9485141850241399  0.6209514760099739  0.745743686759254  1.0000
  C   C79       1.0  0.44851418468426935  0.8790485240166437  0.24574368706164929  1.0000
  C   C80       1.0  0.05148581433683374  0.3790485241194577  0.2542563134978953  1.0000
  C   C81       1.0  0.5896762433507784  0.993480936522607  0.7439900710461664  1.0000
  C   C82       1.0  0.9103237563500658  0.4934809366254211  0.7560099289085875  1.0000
  C   C83       1.0  0.41032375732896265  0.006519063606824512  0.25600992834904285  1.0000
  C   C84       1.0  0.08967624301090792  0.5065190635040105  0.2439900713485618  1.0000
  C   C85       1.0  0.03779233493087444  0.07407543152177806  0.345125436413215  1.0000
  C   C86       1.0  0.462207665408646  0.5740754314189641  0.15487456415766754  1.0000
  C   C87       1.0  0.9622076657485166  0.9259245686076535  0.6548745638552722  1.0000
  C   C88       1.0  0.537792335270745  0.4259245687104675  0.8451254361108197  1.0000
  C   C89       1.0  0.9199231702145116  0.01231844767803779  0.4729979261295148  1.0000
  C   C90       1.0  0.5800768290912512  0.5123184475752238  0.02700207447724551  1.0000
  C   C91       1.0  0.08007682914646196  0.9876815524513938  0.5270020741276344  1.0000
  C   C92       1.0  0.4199231702697223  0.4876815522191482  0.9729979257799035  1.0000
  C   C93       1.0  0.0795066955906016  0.11888356299459833  0.3242627220141992  1.0000
  C   C94       1.0  0.42049330474926894  0.6188835632268439  0.1757372776834054  1.0000
  C   C95       1.0  0.9204933050891395  0.8811164367997737  0.6757372773810101  1.0000
  C   C96       1.0  0.579506695930122  0.3811164369025876  0.8242627225850817  1.0000
  C   C97       1.0  0.9556960992144156  0.13903687978900298  0.5105137120766882  1.0000
  C   C98       1.0  0.5443039004864285  0.6390368800212486  0.9894862878780656  1.0000
  C   C99       1.0  0.04430390146497544  0.860963120005369  0.489486288191799  1.0000
  C   C100      1.0  0.45569609887489515  0.360963120108183  0.010513711505805611  1.0000
  C   C101      1.0  0.9567827659634193  0.06099070254399477  0.4490845632223568  1.0000
  C   C102      1.0  0.543217234660761  0.5609907024411808  0.05091543739574149  1.0000
  C   C103      1.0  0.043217234715971685  0.9390092975854368  0.5509154370461304  1.0000
  C   C104      1.0  0.45678276601862994  0.43900929768825087  0.9490845628727458  1.0000
  C   C105      1.0  0.03873842387969832  0.1514803127383815  0.40724948692388063  1.0000
  C   C106      1.0  0.4612615764601722  0.651480312970627  0.09275051277372394  1.0000
  C   C107      1.0  0.9612615754812753  0.8485196870559905  0.5927505133332684  1.0000
  C   C108      1.0  0.5387384242195689  0.3485196871588045  0.9072494866214853  1.0000
  C   C109      1.0  0.915550337935194  0.09407675355561862  0.5312769430489555  1.0000
  C   C110      1.0  0.5844496630840674  0.5940767534528046  0.9687230569171364  1.0000
  C   C111      1.0  0.08444966274419696  0.905923246573813  0.4687230572195318  1.0000
  C   C112      1.0  0.4155503375953235  0.405923246676627  0.031276943351350776  1.0000
  N   N1        1.0  0.03733863212966017  0.009252482819704103  0.9569274123766667  1.0000
  N   N2        1.0  0.4626613686049415  0.50925248271689  0.5430725875422094  1.0000
  N   N3        1.0  0.9626613685500809  0.9907475173097274  0.04307258701854258  1.0000
  N   N4        1.0  0.5373386320744495  0.4907475174125415  0.4569274127262777  1.0000
  N   N5        1.0  0.9368112679566056  0.27242435019304273  0.35931624741112006  1.0000
  N   N6        1.0  0.5631887313495074  0.7724243500902287  0.14068375232236233  1.0000
  N   N7        1.0  0.06318873140436808  0.7275756499363889  0.6406837528460292  1.0000
  N   N8        1.0  0.4368112680118162  0.22757565003920285  0.8593162470615089  1.0000
  N   N9        1.0  0.09337462578657862  0.2504175507165514  0.19668337666744157  1.0000
  N   N10       1.0  0.4066253745532919  0.7504175506137375  0.30331662303016305  1.0000
  N   N11       1.0  0.9066253748928125  0.7495824490778206  0.8033166236010456  1.0000
  N   N12       1.0  0.5933746248080317  0.24958244918063457  0.6966833763537081  1.0000
  N   N13       1.0  0.7880726542717356  0.2515194417817712  0.1900174252226001  1.0000
  N   N14       1.0  0.7119273450343776  0.7515194416789571  0.30998257451088235  1.0000
  N   N15       1.0  0.21192734508958813  0.7484805580126008  0.8099825741612712  1.0000
  N   N16       1.0  0.2880726543265962  0.24848055811541475  0.6900174257462669  1.0000
  O   O1        1.0  0.1006869034154268  0.22561150990428863  0.9588285595982466  1.0000
  O   O2        1.0  0.3993130973191749  0.7256115101365342  0.5411714403206294  1.0000
  O   O3        1.0  0.8993130972643143  0.7743884898900834  0.04117143979696252  1.0000
  O   O4        1.0  0.6006869033602162  0.2743884899928974  0.45882855994785776  1.0000
  O   O5        1.0  0.780734276801833  0.2191704726311395  0.9558795417136651  1.0000
  O   O6        1.0  0.7192657242174286  0.7191704725283256  0.5441204582524267  1.0000
  O   O7        1.0  0.2192657238779081  0.780829527498292  0.044120457681544226  1.0000
  O   O8        1.0  0.2807342764619624  0.2808295276011061  0.4558795420160604  1.0000
  O   O9        1.0  0.9443561466986652  0.21622355612313643  0.772516872691312  1.0000
  O   O10       1.0  0.5556438543205965  0.716223556355382  0.7274831272747797  1.0000
  O   O11       1.0  0.05564385398072587  0.7837764436712356  0.22748312757717526  1.0000
  O   O12       1.0  0.4443561463587946  0.2837764437740496  0.2725168729937073  1.0000
  S   S1        1.0  0.9453696324581156  0.20622817949865993  0.898168173812489  1.0000
  S   S2        1.0  0.5546303672427285  0.7062281793958459  0.6018318261422647  1.0000
  S   S3        1.0  0.0546303669032081  0.793771820295712  0.10183182557138212  1.0000
  S   S4        1.0  0.4453696321182451  0.293771820398526  0.39816817411488453  1.0000
