data_image0
_chemical_formula_structural       H38C30N6O8S2
_chemical_formula_sum              "H38 C30 N6 O8 S2"
_cell_length_a       6.1497600625951225
_cell_length_b       7.107149468377021
_cell_length_c       18.278938946162928
_cell_angle_alpha    95.38347382215343
_cell_angle_beta     99.06704075592351
_cell_angle_gamma    92.61223987214265

_space_group_name_H-M_alt    "P 1"
_space_group_IT_number       1

loop_
  _space_group_symop_operation_xyz
  'x, y, z'

loop_
  _atom_site_type_symbol
  _atom_site_label
  _atom_site_symmetry_multiplicity
  _atom_site_fract_x
  _atom_site_fract_y
  _atom_site_fract_z
  _atom_site_occupancy
  H   H1        1.0  0.1366003001951215  0.8026400985491743  0.29976542656128796  1.0000
  H   H2        1.0  0.8633996998394919  0.19735990152331948  0.7002345734913257  1.0000
  H   H3        1.0  0.4895402619163238  0.5180071795304184  0.2717624592840805  1.0000
  H   H4        1.0  0.5104597381182896  0.48199282054207526  0.7282375407685331  1.0000
  H   H5        1.0  0.5194971091407091  0.40791372401246273  0.14094732920396785  1.0000
  H   H6        1.0  0.48050289089390424  0.5920862760600308  0.8590526708486458  1.0000
  H   H7        1.0  0.16482721133576278  0.7011902474855349  0.1700215935353299  1.0000
  H   H8        1.0  0.8351727886988505  0.29880975258695874  0.8299784065172837  1.0000
  H   H9        1.0  0.1771626647340504  0.4852318422944306  0.06850089288229277  1.0000
  H   H10       1.0  0.8228373353005631  0.5147681577780632  0.9314991071703209  1.0000
  H   H11       1.0  0.04928589015237987  0.6967328598885684  0.04472725636215787  1.0000
  H   H12       1.0  0.9507141098822336  0.3032671401839255  0.9552727436904558  1.0000
  H   H13       1.0  0.39478610211935816  0.5249782106397398  0.41679952568579426  1.0000
  H   H14       1.0  0.6052138979152553  0.47502178943275397  0.5832004743668194  1.0000
  H   H15       1.0  0.16182609810700183  0.40091814407581444  0.434661140025863  1.0000
  H   H16       1.0  0.8381739019276117  0.5990818559966794  0.5653388600267507  1.0000
  H   H17       1.0  0.426415681804589  0.9557434399890362  0.42542606189826454  1.0000
  H   H18       1.0  0.5735843182300244  0.04425656008345752  0.5745739381543491  1.0000
  H   H19       1.0  0.16808544342228798  0.04796886122128249  0.42176199886867843  1.0000
  H   H20       1.0  0.8319145566123255  0.9520311388512114  0.5782380011839351  1.0000
  H   H21       1.0  0.737425037232206  0.14089468495557586  0.4227251902155086  1.0000
  H   H22       1.0  0.26257496280240733  0.8591053151169179  0.5772748098371051  1.0000
  H   H23       1.0  0.732448944496214  0.3898450107122686  0.4306937535838818  1.0000
  H   H24       1.0  0.26755105553839953  0.610154989360225  0.5693062464687317  1.0000
  H   H25       1.0  0.971413862214445  0.21270575572283557  0.16064452246929412  1.0000
  H   H26       1.0  0.028586137820168295  0.7872942443496581  0.8393554775833194  1.0000
  H   H27       1.0  0.6875713693704881  0.9158856867696126  0.16413911107758444  1.0000
  H   H28       1.0  0.31242863066412524  0.08411431330288113  0.8358608889750292  1.0000
  H   H29       1.0  0.21532594289729354  0.19216312514356712  0.28128783565582  1.0000
  H   H30       1.0  0.7846740571373199  0.8078368749289266  0.7187121643967935  1.0000
  H   H31       1.0  0.0874327090185891  0.09216964030196743  0.0423882032044241  1.0000
  H   H32       1.0  0.9125672910160243  0.9078303597705262  0.9576117968481895  1.0000
  H   H33       1.0  0.5768732897357017  0.04327517194989598  0.28228459871754386  1.0000
  H   H34       1.0  0.4231267102989117  0.9567248281225977  0.7177154013350697  1.0000
  H   H35       1.0  0.3295454200233149  0.8312070630253078  0.9869223711612402  1.0000
  H   H36       1.0  0.6704545800112983  0.16879293704718612  0.013077628891373464  1.0000
  H   H37       1.0  0.6015586747687623  0.8266607296331425  0.03347112757072795  1.0000
  H   H38       1.0  0.39844132526585097  0.17333927043935113  0.9665288724818858  1.0000
  C   C1        1.0  0.0011521144046644607  0.7161147993078614  0.2653261624454321  1.0000
  C   C2        1.0  0.9988478839802503  0.28388520076509227  0.7346738369736782  1.0000
  C   C3        1.0  0.8114988761665788  0.6667218962831045  0.29397816834036417  1.0000
  C   C4        1.0  0.18850112386803464  0.3332781037893891  0.7060218317122495  1.0000
  C   C5        1.0  0.841289305877517  0.5490281153206935  0.14662820053277734  1.0000
  C   C6        1.0  0.15871069415709632  0.4509718847518003  0.8533717995198362  1.0000
  C   C7        1.0  0.6375900528861226  0.5558785165107412  0.24941673103446507  1.0000
  C   C8        1.0  0.36240994714849084  0.4441214835617525  0.7505832690181485  1.0000
  C   C9        1.0  0.6527032807991571  0.4962148804794633  0.17599290579456398  1.0000
  C   C10       1.0  0.3472967192354564  0.5037851195930304  0.8240070942580496  1.0000
  C   C11       1.0  0.01699231868448269  0.6580942950382614  0.19147953415698743  1.0000
  C   C12       1.0  0.9830076813501308  0.3419057050342323  0.8085204658956261  1.0000
  C   C13       1.0  0.025475266321583877  0.5413000048194231  0.0403653451890076  1.0000
  C   C14       1.0  0.9745247337130294  0.45869999525307065  0.9596346548636061  1.0000
  C   C15       1.0  0.4324927438154784  0.24325472869956216  0.42536193080880524  1.0000
  C   C16       1.0  0.567507256219135  0.7567452713729316  0.5746380692438083  1.0000
  C   C17       1.0  0.1295460563770047  0.14932229588406987  0.16161108332767227  1.0000
  C   C18       1.0  0.87045394200791  0.8506777041888838  0.8383889160914382  1.0000
  C   C19       1.0  0.5307384714279328  0.982046316612447  0.1630659773571539  1.0000
  C   C20       1.0  0.4692615286066805  0.017953683460046728  0.8369340226954597  1.0000
  C   C21       1.0  0.3956850306250068  0.9938840602691704  0.09454543592579671  1.0000
  C   C22       1.0  0.6043149694096066  0.006115939803323374  0.9054545641268168  1.0000
  C   C23       1.0  0.2662459958675624  0.1367221988651292  0.22941270964746488  1.0000
  C   C24       1.0  0.7337540040678636  0.8632777997914287  0.7705872903473586  1.0000
  C   C25       1.0  0.19477336427100506  0.07981018257254238  0.09502608814824774  1.0000
  C   C26       1.0  0.8052266357636082  0.9201898174999513  0.9049739119043657  1.0000
  C   C27       1.0  0.46753539206825934  0.05322810246921537  0.22992692208260795  1.0000
  C   C28       1.0  0.532464607966354  0.9467718976032784  0.7700730779700057  1.0000
  C   C29       1.0  0.46471573648982195  0.9199243090764182  0.02220978904638005  1.0000
  C   C30       1.0  0.5352842635447914  0.08007569099607557  0.9777902110062334  1.0000
  N   N1        1.0  0.3156511900209867  0.3976948734925187  0.421344454074292  1.0000
  N   N2        1.0  0.6843488100136268  0.602305126579975  0.5786555459783216  1.0000
  N   N3        1.0  0.3355912726713474  0.0726566964353436  0.4283897202292312  1.0000
  N   N4        1.0  0.664408727363266  0.9273433036371501  0.5716102798233824  1.0000
  N   N5        1.0  0.6493665295427875  0.2597731557090784  0.42478479131940045  1.0000
  N   N6        1.0  0.35063347049182586  0.7402268443634153  0.5752152087332131  1.0000
  O   O1        1.0  0.5549112221936169  0.7330287451241311  0.3927277032199591  1.0000
  O   O2        1.0  0.4450887778409964  0.2669712549483627  0.6072722968326545  1.0000
  O   O3        1.0  0.8903784024665948  0.9379565008804146  0.40243988692740634  1.0000
  O   O4        1.0  0.10962159756801856  0.062043499192079125  0.5975601131252072  1.0000
  O   O5        1.0  0.8391014167324491  0.48683931553033033  0.073258232611403  1.0000
  O   O6        1.0  0.1608985833021642  0.5131606845421633  0.9267417674412107  1.0000
  O   O7        1.0  0.9146173595697039  0.6114554964785941  0.43437066749503345  1.0000
  O   O8        1.0  0.08538264046490963  0.38854450359389964  0.5656293325575802  1.0000
  S   S1        1.0  0.7924116106187203  0.7422598015835449  0.3878176797660601  1.0000
  S   S2        1.0  0.207588389415893  0.25774019848894897  0.6121823202865535  1.0000
