data_image0
_chemical_formula_structural       H132C116N12O12S4
_chemical_formula_sum              "H132 C116 N12 O12 S4"
_cell_length_a       7.583830654492733
_cell_length_b       30.198788955878097
_cell_length_c       11.492556740998525
_cell_angle_alpha    90.0
_cell_angle_beta     90.69000910327598
_cell_angle_gamma    90.0

_space_group_name_H-M_alt    "P 1"
_space_group_IT_number       1

loop_
  _space_group_symop_operation_xyz
  'x, y, z'

loop_
  _atom_site_type_symbol
  _atom_site_label
  _atom_site_symmetry_multiplicity
  _atom_site_fract_x
  _atom_site_fract_y
  _atom_site_fract_z
  _atom_site_occupancy
  H   H1        1.0  0.19678863320909393  0.23935368502891755  0.23692654662118928  1.0000
  H   H2        1.0  0.30321136653195596  0.7393536850971636  0.2630734537254043  1.0000
  H   H3        1.0  0.8032113662718949  0.7606463151075747  0.7630734532018609  1.0000
  H   H4        1.0  0.6967886329490328  0.2606463150393286  0.736926546097646  1.0000
  H   H5        1.0  0.08105174056708102  0.2549759694420205  0.1105345881783776  1.0000
  H   H6        1.0  0.418948260491548  0.7549759691791276  0.38946541130782547  1.0000
  H   H7        1.0  0.9189482602325978  0.7450240306944718  0.8894654116544191  1.0000
  H   H8        1.0  0.5810517403081309  0.24502403062622563  0.6105345885249712  1.0000
  H   H9        1.0  0.6566869754963478  0.23929270609354727  0.23008654667878875  1.0000
  H   H10       1.0  0.843313024109719  0.7392927061617933  0.2699134537295065  1.0000
  H   H11       1.0  0.3433130253033312  0.7607072937118058  0.769913453154008  1.0000
  H   H12       1.0  0.15668697537126972  0.26070729397469883  0.7300865460935437  1.0000
  H   H13       1.0  0.7743316021280232  0.25748163283503117  0.10843867974041034  1.0000
  H   H14       1.0  0.7256683987967335  0.7574816325721382  0.3915613206776313  1.0000
  H   H15       1.0  0.22566839867165564  0.742518367301461  0.8915613200923863  1.0000
  H   H16       1.0  0.27433160200405615  0.24251836723321493  0.6084386800253022  1.0000
  H   H17       1.0  0.0423911127053133  0.2231545039718646  0.40542660013692083  1.0000
  H   H18       1.0  0.45760888835331565  0.7231545037089716  0.09457339934928222  1.0000
  H   H19       1.0  0.9576088880943655  0.7768454961646276  0.5945733996958759  1.0000
  H   H20       1.0  0.5423911124463632  0.27684549609638154  0.9054266004835144  1.0000
  H   H21       1.0  0.8083101531272913  0.2260247899335514  0.40456984254751915  1.0000
  H   H22       1.0  0.6916898464787755  0.7260247900017975  0.09543015786077606  1.0000
  H   H23       1.0  0.1916898463548086  0.7739752098718017  0.595430158145668  1.0000
  H   H24       1.0  0.30831015300221326  0.2739752098035556  0.9045698419622743  1.0000
  H   H25       1.0  0.6063230125057858  0.1454190360552592  0.25919553551638524  1.0000
  H   H26       1.0  0.89367698841786  0.6454190361235054  0.24080446403151942  1.0000
  H   H27       1.0  0.3936769882938931  0.8545809640812332  0.7408044643164112  1.0000
  H   H28       1.0  0.10632301238181872  0.35458096401298694  0.7591955358012772  1.0000
  H   H29       1.0  0.6658030264855448  0.06599431496778876  0.2886699157504135  1.0000
  H   H30       1.0  0.834196973120522  0.5659943150360349  0.21133008465788175  1.0000
  H   H31       1.0  0.33419697299544415  0.9340056848375643  0.7113300840726366  1.0000
  H   H32       1.0  0.16580302636157768  0.4340056847693182  0.7886699160353055  1.0000
  H   H33       1.0  0.37816645581806974  0.07014801530932462  0.6108228927618539  1.0000
  H   H34       1.0  0.12183354353895205  0.5701480153775708  0.8891771073460883  1.0000
  H   H35       1.0  0.6218335436629191  0.9298519844960285  0.38917710706119635  1.0000
  H   H36       1.0  0.8781664559420367  0.42985198475892156  0.11082289247696195  1.0000
  H   H37       1.0  0.31633927116472527  0.14889635430644554  0.580459395832956  1.0000
  H   H38       1.0  0.18366072819229656  0.6488963543746916  0.9195406042749861  1.0000
  H   H39       1.0  0.6836607283162637  0.8511036458300467  0.4195406039900943  1.0000
  H   H40       1.0  0.8163392712886922  0.3511036457618006  0.0804593955480641  1.0000
  H   H41       1.0  0.5999275785194722  0.9993119831424878  0.38407694516985896  1.0000
  H   H42       1.0  0.9000724210854836  0.4993119830742416  0.11592305436829942  1.0000
  H   H43       1.0  0.40007242096151663  0.000688016994004515  0.6159230546531913  1.0000
  H   H44       1.0  0.09992757839550523  0.5006880170622506  0.8840769454547509  1.0000
  H   H45       1.0  0.6954846542827675  0.01089353717066746  0.5201245705877698  1.0000
  H   H46       1.0  0.8045153462579613  0.5108935372389136  0.9798754295916204  1.0000
  H   H47       1.0  0.30451534651802237  0.9891064626346857  0.47987543011516376  1.0000
  H   H48       1.0  0.19548465322302758  0.4891064625664396  0.020124570231429835  1.0000
  H   H49       1.0  0.9264842271912178  0.16197542680094434  0.14555770896888967  1.0000
  H   H50       1.0  0.573515772413738  0.6619754265380514  0.35444229056926874  1.0000
  H   H51       1.0  0.073515772289771  0.8380245733355478  0.8544422908541606  1.0000
  H   H52       1.0  0.42648422706725087  0.33802457326730173  0.6455577092537815  1.0000
  H   H53       1.0  0.0837492104428182  0.14178066962405786  0.33057852613845407  1.0000
  H   H54       1.0  0.41625079061692166  0.6417806693611648  0.16942147421788592  1.0000
  H   H55       1.0  0.9162507903568606  0.8582193305124344  0.6694214736943426  1.0000
  H   H56       1.0  0.583749210183868  0.3582193304441883  0.8305785264850477  1.0000
  H   H57       1.0  0.16111173417222707  0.06388135440856807  0.37152158506129684  1.0000
  H   H58       1.0  0.33888826556771184  0.5638813544768142  0.12847841441515973  1.0000
  H   H59       1.0  0.8388882666274519  0.936118645396785  0.6284784147714998  1.0000
  H   H60       1.0  0.661111733913277  0.43611864532853895  0.8715215854078906  1.0000
  H   H61       1.0  0.9190604689157461  0.024678793943984815  0.047351726127220516  1.0000
  H   H62       1.0  0.5809395320090108  0.5246787940122309  0.45264827429082105  1.0000
  H   H63       1.0  0.08093953188393278  0.9753212058613684  0.9526482737055761  1.0000
  H   H64       1.0  0.4190604687917791  0.4753212061242613  0.5473517264121125  1.0000
  H   H65       1.0  0.8405783937578913  0.1028006260295987  0.005367978865605888  1.0000
  H   H66       1.0  0.6594216058470644  0.6028006260978448  0.4946320206725524  1.0000
  H   H67       1.0  0.15942160572309746  0.8971993741068935  0.9946320209574444  1.0000
  H   H68       1.0  0.34057839363392434  0.3971993740386474  0.5053679791504979  1.0000
  H   H69       1.0  0.20426219205300333  0.9883618129060872  0.2937219513372061  1.0000
  H   H70       1.0  0.29573780768804653  0.48836181283784097  0.2062780490093875  1.0000
  H   H71       1.0  0.7957378087466754  0.01163818723040513  0.7062780484955905  1.0000
  H   H72       1.0  0.7042621917929422  0.5116381869675122  0.7937219508136626  1.0000
  H   H73       1.0  0.1209654196319308  0.9735760742907944  0.15519880620970436  1.0000
  H   H74       1.0  0.37903458010800817  0.4735760742225483  0.3448011932667523  1.0000
  H   H75       1.0  0.879034579849058  0.02642392584569778  0.8448011936133458  1.0000
  H   H76       1.0  0.6209654193729808  0.5264239259139439  0.6551988065562979  1.0000
  H   H77       1.0  0.09130080563372824  0.792133423792273  0.3453820570125545  1.0000
  H   H78       1.0  0.40869919410732164  0.2921334237240269  0.15461794333403914  1.0000
  H   H79       1.0  0.9086991938472606  0.20786657634421926  0.6546179428104958  1.0000
  H   H80       1.0  0.5913008053736671  0.7078665764124653  0.8453820564890111  1.0000
  H   H81       1.0  0.927069424657663  0.8178572258670841  0.1689796862277386  1.0000
  H   H82       1.0  0.5729305749472928  0.317857225798838  0.3310203133104197  1.0000
  H   H83       1.0  0.07293057482332586  0.18214277393826903  0.8310203135953117  1.0000
  H   H84       1.0  0.427069424533696  0.6821427740065151  0.6689796865126305  1.0000
  H   H85       1.0  0.8514354230015082  0.8971224163850658  0.14558956509713109  1.0000
  H   H86       1.0  0.6485645766045586  0.3971224163168197  0.3544104353111642  1.0000
  H   H87       1.0  0.14856457647948068  0.1028775837514264  0.8544104347259192  1.0000
  H   H88       1.0  0.3514354241951202  0.6028775834885334  0.6455895645216324  1.0000
  H   H89       1.0  0.10274312082996852  0.9257261816308197  0.47532275971546456  1.0000
  H   H90       1.0  0.3972568789099704  0.4257261815625735  0.024677239760992127  1.0000
  H   H91       1.0  0.8972568786510204  0.07427381817453349  0.5246772401075858  1.0000
  H   H92       1.0  0.6027431205710185  0.5742738182427797  0.9753227600620582  1.0000
  H   H93       1.0  0.1805886116492359  0.8470074153427668  0.49840274831460757  1.0000
  H   H94       1.0  0.319411388090703  0.3470074156056598  0.001597251161849066  1.0000
  H   H95       1.0  0.8194113891504429  0.15299258446258635  0.501597251518189  1.0000
  H   H96       1.0  0.6805886113902858  0.6529925845308325  0.9984027486612013  1.0000
  H   H97       1.0  0.9061589484744045  0.9809409981069434  0.37744589288944524  1.0000
  H   H98       1.0  0.5938410524503522  0.48094099836983634  0.12255410752859637  1.0000
  H   H99       1.0  0.0938410523252743  0.019059001698409805  0.6225541069433513  1.0000
  H   H100      1.0  0.4061589483493266  0.5190590017666559  0.8774458923042002  1.0000
  H   H101      1.0  0.8149395695295925  0.9696952130360194  0.2377848054327146  1.0000
  H   H102      1.0  0.6850604313940535  0.46969521296777317  0.26221519411519006  1.0000
  H   H103      1.0  0.18506043127008642  0.030304787100472963  0.762215194400082  1.0000
  H   H104      1.0  0.3149395694056254  0.5303047871687191  0.7377848057176066  1.0000
  H   H105      1.0  0.4437950876975229  0.8132884409995325  0.0915446940981897  1.0000
  H   H106      1.0  0.05620491204352697  0.31328844126242555  0.4084553062484039  1.0000
  H   H107      1.0  0.556204911783466  0.18671155880582063  0.9084553057248606  1.0000
  H   H108      1.0  0.9437950874385728  0.6867115588740668  0.5915446944447833  1.0000
  H   H109      1.0  0.3607116711311548  0.8685146576016846  0.24271287345850448  1.0000
  H   H110      1.0  0.13928832992858514  0.3685146578645775  0.2572871268978355  1.0000
  H   H111      1.0  0.6392883296685241  0.13148534220366861  0.7572871263742922  1.0000
  H   H112      1.0  0.8607116708710937  0.6314853422719148  0.7427128729349611  1.0000
  H   H113      1.0  0.42745943964054434  0.9479747761351108  0.2134533839175104  1.0000
  H   H114      1.0  0.0725405600993946  0.4479747760668647  0.2865466155589462  1.0000
  H   H115      1.0  0.5725405611591344  0.05202522400138137  0.7865466159152863  1.0000
  H   H116      1.0  0.9274594393815941  0.5520252240696275  0.7134533842641039  1.0000
  H   H117      1.0  0.6568362536093576  0.918378857858195  0.8819528891409835  1.0000
  H   H118      1.0  0.8431637469302603  0.4183788577899488  0.61804711016827  1.0000
  H   H119      1.0  0.3431637458716313  0.08162114227829732  0.11804711068206689  1.0000
  H   H120      1.0  0.1568362538694186  0.5816211420154044  0.3819528896645267  1.0000
  H   H121      1.0  0.5937215673705574  0.8388114197893813  0.9110639022455767  1.0000
  H   H122      1.0  0.9062784318514813  0.33881141972113527  0.5889360979240671  1.0000
  H   H123      1.0  0.4062784321115424  0.1611885803471108  0.08893609844761045  1.0000
  H   H124      1.0  0.09372156762950748  0.661188580415357  0.4110639018989832  1.0000
  H   H125      1.0  0.6930843946524629  0.9915151324030753  0.9691472387099782  1.0000
  H   H126      1.0  0.8069156045684649  0.49151513233482913  0.5308527605895287  1.0000
  H   H127      1.0  0.306915604828526  0.00848486773341701  0.030852761113072027  1.0000
  H   H128      1.0  0.19308439491252388  0.5084848678016631  0.46914723923352153  1.0000
  H   H129      1.0  0.614960105787068  0.0035718793279292792  0.10979507948160257  1.0000
  H   H130      1.0  0.8850398938178878  0.5035718793961754  0.3902049200565557  1.0000
  H   H131      1.0  0.3850398936939209  0.9964281204774238  0.8902049203414477  1.0000
  H   H132      1.0  0.11496010566310094  0.4964281204091778  0.6097950797664946  1.0000
  C   C1        1.0  0.9266544727492521  0.24024028978777454  0.2506257844629864  1.0000
  C   C2        1.0  0.5733455281743939  0.7402402895248816  0.24937421508491833  1.0000
  C   C3        1.0  0.07334552805042686  0.7597597103487177  0.7493742153698102  1.0000
  C   C4        1.0  0.426654472625285  0.25975971028047157  0.7506257847478783  1.0000
  C   C5        1.0  0.4602504858644607  0.15208710411236598  0.4188888294076878  1.0000
  C   C6        1.0  0.03974951387547827  0.652087103849473  0.08111117006876888  1.0000
  C   C7        1.0  0.5397495136165282  0.8479128960241262  0.5811111704153624  1.0000
  C   C8        1.0  0.9602504856055105  0.34791289595588015  0.9188888297542813  1.0000
  C   C9        1.0  0.5574728288145776  0.1288383632100146  0.3364618047940265  1.0000
  C   C10       1.0  0.9425271707914892  0.6288383632782608  0.16353819561426877  1.0000
  C   C11       1.0  0.4425271719862123  0.8711616365953385  0.6635381959089071  1.0000
  C   C12       1.0  0.057472828689499635  0.3711616365270924  0.8364618042087816  1.0000
  C   C13       1.0  0.5899894450888511  0.08395192614194293  0.3535196866720288  1.0000
  C   C14       1.0  0.9100105545161048  0.58395192587905  0.14648031286612956  1.0000
  C   C15       1.0  0.4100105557108278  0.9160480739945492  0.6464803131607678  1.0000
  C   C16       1.0  0.08998944496488408  0.41604807392630316  0.8535196869569207  1.0000
  C   C17       1.0  0.5278240481486525  0.06192803998638432  0.45236960695137296  1.0000
  C   C18       1.0  0.9721759514574143  0.5619280400546305  0.04763039345692233  1.0000
  C   C19       1.0  0.4721759513323363  0.9380719598189688  0.5476303928716774  1.0000
  C   C20       1.0  0.02782404802357455  0.4380719600818618  0.9523696063661279  1.0000
  C   C21       1.0  0.42955746356450586  0.08603655145893752  0.5332726621578583  1.0000
  C   C22       1.0  0.07044253579251598  0.5860365515271836  0.9667273379500839  1.0000
  C   C23       1.0  0.570442535916483  0.9139634483464156  0.466727337665192  1.0000
  C   C24       1.0  0.9295574636895837  0.4139634482781695  0.033272662743103316  1.0000
  C   C25       1.0  0.39465258326128516  0.13091277983948696  0.5172358701460386  1.0000
  C   C26       1.0  0.10534741741442667  0.6309127799077331  0.98276412997165  1.0000
  C   C27       1.0  0.6053474162197038  0.8690872202970054  0.48276412967701166  1.0000
  C   C28       1.0  0.8946525833852521  0.36908722022875917  0.017235869861146617  1.0000
  C   C29       1.0  0.5709939086360248  0.013597256187986108  0.469640499344351  1.0000
  C   C30       1.0  0.9290060922887319  0.5135972562562322  0.030359501073690592  1.0000
  C   C31       1.0  0.42900609216365404  0.986402743617367  0.5303595004884456  1.0000
  C   C32       1.0  0.0709939085120578  0.48640274388026006  0.969640499629243  1.0000
  C   C33       1.0  0.9590078629369054  0.12755917350288956  0.16464113007410855  1.0000
  C   C34       1.0  0.5409921366691613  0.6275591735711357  0.3353588703341867  1.0000
  C   C35       1.0  0.040992136544083464  0.8724408263024636  0.8353588697489417  1.0000
  C   C36       1.0  0.45900786281293837  0.3724408262342175  0.6646411303590005  1.0000
  C   C37       1.0  0.04790304777109691  0.11629419494705967  0.2676287750083002  1.0000
  C   C38       1.0  0.45209695196884203  0.6162941950153058  0.23237122446815653  1.0000
  C   C39       1.0  0.952096953028582  0.8837058048582934  0.7323712248244966  1.0000
  C   C40       1.0  0.5479030475121468  0.38370580512118646  0.7676287753548938  1.0000
  C   C41       1.0  0.09046902712340531  0.07216192818804494  0.29114170326471234  1.0000
  C   C42       1.0  0.4095309726176446  0.5721619282562911  0.20885829708188125  1.0000
  C   C43       1.0  0.9095309723575836  0.9278380716173081  0.708858296558338  1.0000
  C   C44       1.0  0.5904690268633442  0.42783807154906206  0.791141702741169  1.0000
  C   C45       1.0  0.04531465555077243  0.038636759298683376  0.2119305216467701  1.0000
  C   C46       1.0  0.4546853441891665  0.5386367593669295  0.2880694778296866  1.0000
  C   C47       1.0  0.9546853439302165  0.9613632408378089  0.7880694781762803  1.0000
  C   C48       1.0  0.5453146552918224  0.46136324076956275  0.7119305219933637  1.0000
  C   C49       1.0  0.9553502270069203  0.05048124586145916  0.10933075465122499  1.0000
  C   C50       1.0  0.5446497725991465  0.5504812459297054  0.39066924575707024  1.0000
  C   C51       1.0  0.044649772475179574  0.9495187542750331  0.8906692460419622  1.0000
  C   C52       1.0  0.45535022688184223  0.44951875420678694  0.60933075406598  1.0000
  C   C53       1.0  0.9116018586911548  0.09442335135247104  0.08542687034370164  1.0000
  C   C54       1.0  0.588398142233602  0.5944233514207172  0.41457313007433994  1.0000
  C   C55       1.0  0.08839814210963495  0.9055766487840212  0.9145731303592318  1.0000
  C   C56       1.0  0.4116018585660769  0.4055766487157751  0.5854268697584567  1.0000
  C   C57       1.0  0.08748304988021008  0.9908160391370888  0.2362678349730392  1.0000
  C   C58       1.0  0.41251694986083975  0.4908160393999818  0.26373216537355443  1.0000
  C   C59       1.0  0.9125169496018897  0.00918396066826434  0.763732165720148  1.0000
  C   C60       1.0  0.587483049620149  0.5091839607365105  0.736267834449496  1.0000
  C   C61       1.0  0.05846927348283609  0.8270675664011492  0.3353497449255881  1.0000
  C   C62       1.0  0.44153072625821377  0.3270675666640422  0.16465025542100548  1.0000
  C   C63       1.0  0.9415307259992636  0.17293243340420397  0.664650255767599  1.0000
  C   C64       1.0  0.5584692732227751  0.6729324334724501  0.8353497444020448  1.0000
  C   C65       1.0  0.9663440873767203  0.8414452886546598  0.2362677058723923  1.0000
  C   C66       1.0  0.5336559122293465  0.34144528891755277  0.2637322945359029  1.0000
  C   C67       1.0  0.03365591210426855  0.15855471115069333  0.7637322939506579  1.0000
  C   C68       1.0  0.46634408725275334  0.6585547112189394  0.7362677061572843  1.0000
  C   C69       1.0  0.9241572197908752  0.8861755813817486  0.22289315117472042  1.0000
  C   C70       1.0  0.5758427798151916  0.38617558164464144  0.27710684923357487  1.0000
  C   C71       1.0  0.07584277969122465  0.11382441842360465  0.7771068495184668  1.0000
  C   C72       1.0  0.4241572196657972  0.6138244184918508  0.7228931505894755  1.0000
  C   C73       1.0  0.9733248474089652  0.9170845910564002  0.30837427047283883  1.0000
  C   C74       1.0  0.5266751521959906  0.41708459098815404  0.1916257290653195  1.0000
  C   C75       1.0  0.026675152072023648  0.0829154090800921  0.6916257293502115  1.0000
  C   C76       1.0  0.4733248486036882  0.5829154091483383  0.8083742707674771  1.0000
  C   C77       1.0  0.06523143071102183  0.9022334733292867  0.4073227971261946  1.0000
  C   C78       1.0  0.4347685690300281  0.40223347359217965  0.09267720322039898  1.0000
  C   C79       1.0  0.9347685687699671  0.09776652647606647  0.5926772026968556  1.0000
  C   C80       1.0  0.5652314304509607  0.5977665265443126  0.9073227966026512  1.0000
  C   C81       1.0  0.10815863361568447  0.8576186382122728  0.42092204991432164  1.0000
  C   C82       1.0  0.3918413674429445  0.35761863847516584  0.07907794957188143  1.0000
  C   C83       1.0  0.8918413671839943  0.14238136159308032  0.5790779499184749  1.0000
  C   C84       1.0  0.6081586333567344  0.6423813616613265  0.9209220502609152  1.0000
  C   C85       1.0  0.9337039084088296  0.9655601266859525  0.29277467240576766  1.0000
  C   C86       1.0  0.5662960911972372  0.46556012694884547  0.20722532800252752  1.0000
  C   C87       1.0  0.06629609107327013  0.03443987311940067  0.7072253282874195  1.0000
  C   C88       1.0  0.4337039082837517  0.5344398731876467  0.7927746718205227  1.0000
  C   C89       1.0  0.47222108016854075  0.8483367302387599  0.07864448913845244  1.0000
  C   C90       1.0  0.027778919572509102  0.3483367301705137  0.4213555112081412  1.0000
  C   C91       1.0  0.5277789206311381  0.15166326956659326  0.9213555106943441  1.0000
  C   C92       1.0  0.9722210799095907  0.6516632696348394  0.578644489485046  1.0000
  C   C93       1.0  0.4259816409589441  0.8792267374957703  0.16358402833134436  1.0000
  C   C94       1.0  0.07401836010079582  0.3792267374275241  0.33641597202499557  1.0000
  C   C95       1.0  0.5740183598407347  0.12077326264072198  0.8364159715014523  1.0000
  C   C96       1.0  0.925981640698883  0.620773262708968  0.663584027807801  1.0000
  C   C97       1.0  0.4630196107100753  0.9240193933196954  0.14670224734341009  1.0000
  C   C98       1.0  0.03698038902986364  0.42401939358258844  0.3532977521330466  1.0000
  C   C99       1.0  0.5369803887709136  0.07598060648565771  0.8532977524796401  1.0000
  C   C100      1.0  0.9630196117698152  0.5759806065539039  0.64670224769975  1.0000
  C   C101      1.0  0.5448706649504416  0.9389293402270981  0.04524819407735327  1.0000
  C   C102      1.0  0.9551293346556252  0.43892934015885193  0.454751806330942  1.0000
  C   C103      1.0  0.4551293345305473  0.06107065957825506  0.9547518057456968  1.0000
  C   C104      1.0  0.044870664825363525  0.5610706596465012  0.5452481934921083  1.0000
  C   C105      1.0  0.5909945718044103  0.9075799039505905  0.9609221734030899  1.0000
  C   C106      1.0  0.9090054274165175  0.4075799038823444  0.5390778258964171  1.0000
  C   C107      1.0  0.4090054276765785  0.0924200961859017  0.039077826419960375  1.0000
  C   C108      1.0  0.09099457206447137  0.5924200962541478  0.46092217392663315  1.0000
  C   C109      1.0  0.5556155171039504  0.8626278712057222  0.9775469479106624  1.0000
  C   C110      1.0  0.9443844821180885  0.3626278711374761  0.5224530522589813  1.0000
  C   C111      1.0  0.44438448237703854  0.13737212859963094  0.022453051912387754  1.0000
  C   C112      1.0  0.05561551736401135  0.6373721286678771  0.4775469484342058  1.0000
  C   C113      1.0  0.5795228867516025  0.9875179482717392  0.02675066698262482  1.0000
  C   C114      1.0  0.9204771128533534  0.48751794820349315  0.4732493325555335  1.0000
  C   C115      1.0  0.42047711272938626  0.012482051533613876  0.9732493328404255  1.0000
  C   C116      1.0  0.07952288662763554  0.51248205160186  0.5267506672675167  1.0000
  N   N1        1.0  0.07980534637765035  0.24758007418521663  0.19761534818995355  1.0000
  N   N2        1.0  0.42019465468208955  0.7475800742534627  0.3023846521663864  1.0000
  N   N3        1.0  0.9201946544220285  0.7524199256201366  0.8023846516428431  1.0000
  N   N4        1.0  0.5798053461175894  0.2524199258830295  0.6976153476664102  1.0000
  N   N5        1.0  0.774760096690432  0.24635614066741884  0.19265698833170386  1.0000
  N   N6        1.0  0.7252399029156348  0.7463561407356649  0.3073430120765914  1.0000
  N   N7        1.0  0.22523990279166778  0.7536438594690734  0.8073430123614833  1.0000
  N   N8        1.0  0.2747600965653541  0.2536438594008273  0.6926569877464589  1.0000
  N   N9        1.0  0.9253098348956175  0.2264054022162755  0.3612083932836429  1.0000
  N   N10       1.0  0.5746901660291394  0.7264054022845217  0.1387916071343987  1.0000
  N   N11       1.0  0.0746901659040614  0.7735945975890777  0.6387916065491537  1.0000
  N   N12       1.0  0.42530983477053946  0.2735945978519706  0.8612083926983978  1.0000
  O   O1        1.0  0.4269276423834079  0.21906197528865912  0.27650198939336995  1.0000
  O   O2        1.0  0.07307235735653107  0.7190619753569052  0.22349801008308676  1.0000
  O   O3        1.0  0.573072358416271  0.7809380248478331  0.7234980104394266  1.0000
  O   O4        1.0  0.9269276421244578  0.280938024779587  0.7765019897399635  1.0000
  O   O5        1.0  0.5864069395921933  0.23083817467597853  0.4595407400492449  1.0000
  O   O6        1.0  0.9135930600127625  0.7308381747442246  0.0404592594889135  1.0000
  O   O7        1.0  0.4135930612074856  0.7691618251293746  0.5404592597835518  1.0000
  O   O8        1.0  0.08640693946822624  0.2691618250611285  0.9595407403341367  1.0000
  O   O9        1.0  0.2671217722128532  0.22171969345468437  0.46100759242604994  1.0000
  O   O10       1.0  0.23287822752708573  0.7217196935229305  0.03899240705040672  1.0000
  O   O11       1.0  0.7328782272681356  0.7782803063506688  0.5389924073970004  1.0000
  O   O12       1.0  0.7671217719539031  0.2782803066135618  0.9610075927726435  1.0000
  S   S1        1.0  0.43202227615431094  0.20985195132358014  0.4022429717867782  1.0000
  S   S2        1.0  0.06797772358562804  0.7098519513918262  0.09775702768967849  1.0000
  S   S3        1.0  0.5679777233266778  0.790148048481773  0.5977570280362721  1.0000
  S   S4        1.0  0.9320222772140507  0.29014804874466604  0.902242972143118  1.0000
