data_image0
_chemical_formula_structural       H28C16N16I8
_chemical_formula_sum              "H28 C16 N16 I8"
_cell_length_a       7.145508128803312
_cell_length_b       10.526022925994376
_cell_length_c       12.826011562816163
_cell_angle_alpha    72.49523346131717
_cell_angle_beta     75.80309301927167
_cell_angle_gamma    86.86283452825262

_space_group_name_H-M_alt    "P 1"
_space_group_IT_number       1

loop_
  _space_group_symop_operation_xyz
  'x, y, z'

loop_
  _atom_site_type_symbol
  _atom_site_label
  _atom_site_symmetry_multiplicity
  _atom_site_fract_x
  _atom_site_fract_y
  _atom_site_fract_z
  _atom_site_occupancy
  H   H1        1.0  0.386344859925362  0.880640026718775  0.5844317145163074  1.0000
  H   H2        1.0  0.6136551411491549  0.11935997267503788  0.4155682856748743  1.0000
  H   H3        1.0  0.3025550581333362  0.03480270804420965  0.6013615971091262  1.0000
  H   H4        1.0  0.6974449414545318  0.9651972922933503  0.39863840308427334  1.0000
  H   H5        1.0  0.12608020233528155  0.12299694946528036  0.7245054886068042  1.0000
  H   H6        1.0  0.8739197973382852  0.8770030499198569  0.27549451158944555  1.0000
  H   H7        1.0  0.5169110502716057  0.730970467980106  0.7282406792165407  1.0000
  H   H8        1.0  0.48308894965504057  0.2690295326499684  0.27175932013468557  1.0000
  H   H9        1.0  0.4623934621498305  0.7595872366375329  0.8622572623006891  1.0000
  H   H10       1.0  0.5376065392634645  0.2404127630487944  0.13774273704831932  1.0000
  H   H11       1.0  0.07468128491938024  0.20500528316920055  0.9122820552562326  1.0000
  H   H12       1.0  0.9253187160694379  0.7949947171770353  0.08771794493209888  1.0000
  H   H13       1.0  0.3000030714816734  0.032657076620343825  0.04029289202347581  1.0000
  H   H14       1.0  0.6999969295928438  0.9673429227734691  0.9597071081677058  1.0000
  H   H15       1.0  0.8139335699434752  0.4785848295653173  0.48566415908155197  1.0000
  H   H16       1.0  0.18606642964439282  0.5214151707722426  0.5143358411118476  1.0000
  H   H17       1.0  0.9874964654804415  0.3625644764654857  0.45214447439840605  1.0000
  H   H18       1.0  0.012503534193125346  0.6374355229196514  0.5478555257978438  1.0000
  H   H19       1.0  0.06988771556203217  0.22596385588209386  0.3549537338303518  1.0000
  H   H20       1.0  0.9301122844503128  0.7740361437955576  0.6450462655237248  1.0000
  H   H21       1.0  0.6748464439094142  0.6175456732379753  0.3445043833688727  1.0000
  H   H22       1.0  0.3251535557641525  0.38245432614716185  0.6554956168273771  1.0000
  H   H23       1.0  0.7004561274098225  0.5729010709833413  0.21880453926032753  1.0000
  H   H24       1.0  0.29954387217804546  0.4270989293542186  0.7811954609330721  1.0000
  H   H25       1.0  0.1656348533824418  0.15941424484361966  0.15902535600191808  1.0000
  H   H26       1.0  0.834365146291125  0.8405857545415175  0.8409746441943317  1.0000
  H   H27       1.0  0.00998378473566621  0.3621562264846927  0.009911042354090127  1.0000
  H   H28       1.0  0.9900162151909799  0.6378437741453815  0.9900889569971362  1.0000
  C   C1        1.0  0.3724132823301388  0.9003201175314131  0.7389058687959482  1.0000
  C   C2        1.0  0.6275867172577293  0.09967988280614686  0.2610941313974513  1.0000
  C   C3        1.0  0.18733542915780588  0.08599929607448982  0.797344590832079  1.0000
  C   C4        1.0  0.8126645704300621  0.9140007042630701  0.20265540936132068  1.0000
  C   C5        1.0  0.16370429645800763  0.12458583856806135  0.8928828721838025  1.0000
  C   C6        1.0  0.8362957031298605  0.8754141617694988  0.10711712800959698  1.0000
  C   C7        1.0  0.27653318715767206  0.035675849039141456  0.9591612142917972  1.0000
  C   C8        1.0  0.7234668124301957  0.9643241512984183  0.04083878590160254  1.0000
  C   C9        1.0  0.8541022268822842  0.4650292490370896  0.3275432559172692  1.0000
  C   C10       1.0  0.1458977741922326  0.5349707503567235  0.6724567442739124  1.0000
  C   C11       1.0  0.040666254393782825  0.27683807384020503  0.2735289707805802  1.0000
  C   C12       1.0  0.9593337465950353  0.7231619265060307  0.7264710294077512  1.0000
  C   C13       1.0  0.08565310935728204  0.2452738303675011  0.17392801919416023  1.0000
  C   C14       1.0  0.9143468917172349  0.7547261690263118  0.8260719809970214  1.0000
  C   C15       1.0  0.004954190121485776  0.3476885783777944  0.09793962794773005  1.0000
  C   C16       1.0  0.9950458094663823  0.6523114219597654  0.9020603722456696  1.0000
  N   N1        1.0  0.3441030335338055  0.940008507198345  0.636065644111966  1.0000
  N   N2        1.0  0.6558969663928407  0.05999149343172939  0.3639343552392603  1.0000
  N   N3        1.0  0.45550164276799693  0.7874317993175651  0.7798047546712074  1.0000
  N   N4        1.0  0.5444983569055697  0.21256820006757202  0.22019524552504247  1.0000
  N   N5        1.0  0.3640634327236702  0.947229046959609  0.9095081786508769  1.0000
  N   N6        1.0  0.6359365683508467  0.052770952434204176  0.0904918215403048  1.0000
  N   N7        1.0  0.30895189610623  0.9788424660650895  0.8097361656815005  1.0000
  N   N8        1.0  0.6910481034816381  0.021157534272470427  0.19026383451189913  1.0000
  N   N9        1.0  0.8894278132349609  0.43296059204317594  0.42849827602282253  1.0000
  N   N10       1.0  0.11057218669168517  0.5670394085868982  0.5715017233284039  1.0000
  N   N11       1.0  0.740913475020115  0.5632773231521259  0.29196761269801574  1.0000
  N   N12       1.0  0.25908652456775305  0.4367226771854341  0.7080323874953839  1.0000
  N   N13       1.0  0.9155723723462428  0.4370083988973027  0.1459185407344773  1.0000
  N   N14       1.0  0.08442762732732396  0.5629916004878345  0.8540814594617725  1.0000
  N   N15       1.0  0.9378687630645127  0.3929715920242112  0.2540480243265921  1.0000
  N   N16       1.0  0.06213123652335514  0.6070284083133487  0.7459519758668075  1.0000
  I   I1        1.0  0.8442758545163123  0.0780813515832333  0.5985044413196278  1.0000
  I   I2        1.0  0.15572414681128427  0.9219186490555167  0.4014955580265304  1.0000
  I   I3        1.0  0.5746911112612496  0.41087287813183426  0.9030390488916521  1.0000
  I   I4        1.0  0.425308888412317  0.5891271212533029  0.09696095130459782  1.0000
  I   I5        1.0  0.7180029652361132  0.2537828878722071  0.7451562598399624  1.0000
  I   I6        1.0  0.2819970344374534  0.7462171115129301  0.25484374035628743  1.0000
  I   I7        1.0  0.6364368492296102  0.6996270710846437  0.5239926785864057  1.0000
  I   I8        1.0  0.36356315035825765  0.3003729292529164  0.4760073216069938  1.0000
