data_image0
_chemical_formula_structural       H104C112N8O40
_chemical_formula_sum              "H104 C112 N8 O40"
_cell_length_a       9.479742044470925
_cell_length_b       12.478445241465776
_cell_length_c       21.236131918208653
_cell_angle_alpha    90.0
_cell_angle_beta     90.0
_cell_angle_gamma    90.0

_space_group_name_H-M_alt    "P 1"
_space_group_IT_number       1

loop_
  _space_group_symop_operation_xyz
  'x, y, z'

loop_
  _atom_site_type_symbol
  _atom_site_label
  _atom_site_symmetry_multiplicity
  _atom_site_fract_x
  _atom_site_fract_y
  _atom_site_fract_z
  _atom_site_occupancy
  H   H1        1.0  0.6905044429787888  0.7440986421245309  0.667510639159551  1.0000
  H   H2        1.0  0.19050444321460341  0.7559013576992718  0.3324893604539072  1.0000
  H   H3        1.0  0.3094955565495819  0.24409864218326335  0.832489360496084  1.0000
  H   H4        1.0  0.8094955573686482  0.25590135775800427  0.1675106395882697  1.0000
  H   H5        1.0  0.5665649555446057  0.9080288001223006  0.6389767798704007  1.0000
  H   H6        1.0  0.06656495578042049  0.5919711997015025  0.36102322021395306  1.0000
  H   H7        1.0  0.4334350450386458  0.4080288001810329  0.8610232202561299  1.0000
  H   H8        1.0  0.9334350448028312  0.09197119976023477  0.1389767798282238  1.0000
  H   H9        1.0  0.640571852220575  0.011302892088776958  0.5425975650546807  1.0000
  H   H10       1.0  0.14057185245638962  0.4886971078524907  0.45740243502967304  1.0000
  H   H11       1.0  0.3594281473077957  0.5113028920300445  0.95740243507185  1.0000
  H   H12       1.0  0.8594281481268621  0.9886971077937583  0.042597565012503794  1.0000
  H   H13       1.0  0.828767152433469  0.9404826909847835  0.4736062150459835  1.0000
  H   H14       1.0  0.3287671526692837  0.5595173088390194  0.5263937850383703  1.0000
  H   H15       1.0  0.17123284709490164  0.44048269104351584  0.026393784996193433  1.0000
  H   H16       1.0  0.6712328468590869  0.05951730889775182  0.9736062150881603  1.0000
  H   H17       1.0  0.9945091296549271  0.6924863292492175  0.5050120587546554  1.0000
  H   H18       1.0  0.49450912989074197  0.8075136713759675  0.49498794132969837  1.0000
  H   H19       1.0  0.005490869873443384  0.19248632930794973  0.9949879413718752  1.0000
  H   H20       1.0  0.5054908696376287  0.3075136714346998  0.00501205871247848  1.0000
  H   H21       1.0  0.9483273688067676  0.5348828777018363  0.6703287700804974  1.0000
  H   H22       1.0  0.44832736798770123  0.9651171221219667  0.32967123000385634  1.0000
  H   H23       1.0  0.05167263177648403  0.03488287776056863  0.8296712295751376  1.0000
  H   H24       1.0  0.5516726315406694  0.465117122180699  0.1703287700383205  1.0000
  H   H25       1.0  0.8663348940797424  0.652847972833118  0.6989193496803257  1.0000
  H   H26       1.0  0.36633489431555716  0.8471520269906849  0.301080650404028  1.0000
  H   H27       1.0  0.13366510650350918  0.15284797289185034  0.8010806504462048  1.0000
  H   H28       1.0  0.6336651062676945  0.3471520270494173  0.19891934963814886  1.0000
  H   H29       1.0  0.3928805839365921  0.04147325247541892  0.9115543284698577  1.0000
  H   H30       1.0  0.8928805837007774  0.4585267474658487  0.08844567161449603  1.0000
  H   H31       1.0  0.6071194166466596  0.5414732524166865  0.5884456716566729  1.0000
  H   H32       1.0  0.10711941582759325  0.9585267474071164  0.4115543284276808  1.0000
  H   H33       1.0  0.5798775350861141  0.16741644247938411  0.8870394397883828  1.0000
  H   H34       1.0  0.07987753532192882  0.3325835574618835  0.11296055982507533  1.0000
  H   H35       1.0  0.42012246549713755  0.6674164424206518  0.6129605598672522  1.0000
  H   H36       1.0  0.9201224652613229  0.8325835574031512  0.387039439746206  1.0000
  H   H37       1.0  0.7410165062557937  0.1331382947035194  0.7944751631314588  1.0000
  H   H38       1.0  0.2410165054367274  0.36686170523774825  0.20552483648199932  1.0000
  H   H39       1.0  0.2589834943274579  0.6331382946447871  0.7055248365241762  1.0000
  H   H40       1.0  0.7589834940916432  0.8668617051790158  0.29447516356017756  1.0000
  H   H41       1.0  0.6991418003684612  0.9760023155392232  0.7256469285155903  1.0000
  H   H42       1.0  0.19914180060427591  0.5239976850859616  0.27435307156876343  1.0000
  H   H43       1.0  0.3008582002147904  0.47600231479657373  0.7743530716109402  1.0000
  H   H44       1.0  0.8008581999789758  0.023997685144693935  0.22564692847341344  1.0000
  H   H45       1.0  0.4183674008633162  0.7958790632825198  0.7562453634143134  1.0000
  H   H46       1.0  0.9183674006275014  0.704120936541283  0.24375463667004046  1.0000
  H   H47       1.0  0.5816325997199355  0.2958790633412522  0.7437546367122173  1.0000
  H   H48       1.0  0.08163259890086912  0.2041209366000154  0.2562453633721364  1.0000
  H   H49       1.0  0.19095110937705137  0.7981556569967432  0.9144021691327868  1.0000
  H   H50       1.0  0.6909511101961177  0.7018443428270598  0.08559783095156698  1.0000
  H   H51       1.0  0.8090488901513192  0.2981556570554755  0.5855978309937439  1.0000
  H   H52       1.0  0.30904889038713396  0.20184434288579217  0.41440216909060995  1.0000
  H   H53       1.0  0.298885521009779  0.9033499848636505  0.9414447987515824  1.0000
  H   H54       1.0  0.7988855207739644  0.5966500149601526  0.05855520086187583  1.0000
  H   H55       1.0  0.7011144785185915  0.4033499849223828  0.5585552009040526  1.0000
  H   H56       1.0  0.2011144787544063  0.0966500150188849  0.4414447987094055  1.0000
  H   H57       1.0  0.5196504532391983  0.07244569756142238  0.6317917096048893  1.0000
  H   H58       1.0  0.019650453475012944  0.42755430237984526  0.368208290008569  1.0000
  H   H59       1.0  0.4803495473440534  0.57244569750269  0.8682082900507458  1.0000
  H   H60       1.0  0.9803495471082387  0.9275543023211129  0.13179171003360787  1.0000
  H   H61       1.0  0.48852570020099817  0.17859124489279923  0.5328887169087895  1.0000
  H   H62       1.0  0.9885256999651834  0.3214087550484684  0.4671112831755642  1.0000
  H   H63       1.0  0.5114742993273725  0.6785912448340669  0.9671112832177411  1.0000
  H   H64       1.0  0.011474299563187193  0.8214087557911179  0.03288871686661264  1.0000
  H   H65       1.0  0.30164910570196796  0.31932723932296053  0.5288170017615569  1.0000
  H   H66       1.0  0.8016491065210343  0.18067276061830712  0.4711829978519013  1.0000
  H   H67       1.0  0.6983508938264027  0.8193272392642281  0.9711829978940781  1.0000
  H   H68       1.0  0.19835089406221734  0.6806727605595747  0.02881700219027558  1.0000
  H   H69       1.0  0.36369869178148334  0.10189848618117105  0.7235173410665114  1.0000
  H   H70       1.0  0.8636986915456687  0.3981015137600966  0.2764826590178423  1.0000
  H   H71       1.0  0.6363013077468872  0.6018984861224387  0.7764826590600191  1.0000
  H   H72       1.0  0.13630130798270193  0.8981015137013643  0.22351734102433457  1.0000
  H   H73       1.0  0.044897482231411726  0.49460245411751497  0.5696935127638121  1.0000
  H   H74       1.0  0.5448974819955971  0.005397545823752672  0.4303064873205416  1.0000
  H   H75       1.0  0.9551025183518399  0.9946024540587827  0.9303064873627185  1.0000
  H   H76       1.0  0.4551025175327736  0.5053975457650204  0.06969351272163529  1.0000
  H   H77       1.0  0.09980503641993398  0.30657969209877484  0.7179107395225687  1.0000
  H   H78       1.0  0.5998050361841193  0.19342030784249278  0.282089260561785  1.0000
  H   H79       1.0  0.9001949641633176  0.8065796920400424  0.7820892606039619  1.0000
  H   H80       1.0  0.4001949643991324  0.6934203085851423  0.21791073948039186  1.0000
  H   H81       1.0  0.01737682937228  0.470883046429091  0.7823222719649318  1.0000
  H   H82       1.0  0.5173768291364653  0.029116953512176573  0.21767772811942188  1.0000
  H   H83       1.0  0.9826231701560907  0.9708830463703587  0.7176777281615988  1.0000
  H   H84       1.0  0.4826231703919053  0.5291169534534442  0.282322271922755  1.0000
  H   H85       1.0  0.8426539406374561  0.32168191407862334  0.783486923328714  1.0000
  H   H86       1.0  0.34265394087327083  0.17831808586264433  0.21651307675563972  1.0000
  H   H87       1.0  0.15734605889091446  0.821681914019891  0.7165130767978166  1.0000
  H   H88       1.0  0.6573460597099808  0.678318085803912  0.2834869232865372  1.0000
  H   H89       1.0  0.6972398393324523  0.29157319197985426  0.8802609487451729  1.0000
  H   H90       1.0  0.1972398385133859  0.20842680796141339  0.1197390513391807  1.0000
  H   H91       1.0  0.3027601612507994  0.7915731919211219  0.6197390513813577  1.0000
  H   H92       1.0  0.8027601610149847  0.708426807902681  0.38026094870299615  1.0000
  H   H93       1.0  0.726207008345259  0.40756187903122176  0.9738729204383537  1.0000
  H   H94       1.0  0.22620700858107373  0.09243812091004587  0.02612707964599999  1.0000
  H   H95       1.0  0.27379299118311157  0.9075618789724894  0.5261270796881768  1.0000
  H   H96       1.0  0.7737929909472968  0.5924381208513135  0.4738729203961769  1.0000
  H   H97       1.0  0.20385798906069877  0.6928910615617988  0.8220794086813447  1.0000
  H   H98       1.0  0.7038579888248842  0.8071089390633859  0.177920591403009  1.0000
  H   H99       1.0  0.7961420104676719  0.19289106162053124  0.6779205914451859  1.0000
  H   H100      1.0  0.2961420107034865  0.3071089391221183  0.32207940863916784  1.0000
  H   H101      1.0  0.9746961759776119  0.622627338555149  0.9707549679668291  1.0000
  H   H102      1.0  0.4746961751585456  0.8773726612686539  0.029245031646628988  1.0000
  H   H103      1.0  0.025303824605639638  0.12262733861388134  0.5292450316888059  1.0000
  H   H104      1.0  0.5253038243698249  0.3773726613273863  0.4707549679246523  1.0000
  C   C1        1.0  0.90359895763156  0.6455440556995045  0.603175587217792  1.0000
  C   C2        1.0  0.4035989578673746  0.8544559449256803  0.3968244128665618  1.0000
  C   C3        1.0  0.09640104189681074  0.14554405575823684  0.8968244129087387  1.0000
  C   C4        1.0  0.5964010416609961  0.3544559441830308  0.10317558717561515  1.0000
  C   C5        1.0  0.8313432204198593  0.7460030917206257  0.5871807623924312  1.0000
  C   C6        1.0  0.331343220655674  0.7539969081031772  0.4128192372210269  1.0000
  C   C7        1.0  0.1686567791085113  0.2460030917793581  0.9128192372632038  1.0000
  C   C8        1.0  0.6686567788726966  0.2539969081619095  0.08718076235025436  1.0000
  C   C9        1.0  0.7232743504871041  0.7871854850441417  0.6254753229617555  1.0000
  C   C10       1.0  0.22327435072291876  0.7128145155810431  0.3745246771225983  1.0000
  C   C11       1.0  0.2767256500961476  0.2871854851028741  0.8745246771647751  1.0000
  C   C12       1.0  0.7767256498603329  0.21281451483839353  0.12547532291957858  1.0000
  C   C13       1.0  0.6534753457361336  0.8809772369292926  0.6096678943164207  1.0000
  C   C14       1.0  0.15347534597194834  0.6190227636958922  0.39033210576793315  1.0000
  C   C15       1.0  0.346524653792237  0.3809772361866431  0.8903321053392144  1.0000
  C   C16       1.0  0.8465246535564223  0.11902276375462455  0.10966789427424375  1.0000
  C   C17       1.0  0.693584794729186  0.9370134534986786  0.5554840210747318  1.0000
  C   C18       1.0  0.19358479496500064  0.5629865463251243  0.4445159790096219  1.0000
  C   C19       1.0  0.30641520479918466  0.43701345355741095  0.9445159790517987  1.0000
  C   C20       1.0  0.806415205618251  0.0629865463838567  0.05548402103255494  1.0000
  C   C21       1.0  0.799154541807241  0.8980415663292739  0.5163890708645132  1.0000
  C   C22       1.0  0.2991545409881747  0.6019584334945292  0.4836109287489449  1.0000
  C   C23       1.0  0.20084545877601065  0.3980415663880062  0.9836109287911218  1.0000
  C   C24       1.0  0.700845458540196  0.10195843355326145  0.016389070822336392  1.0000
  C   C25       1.0  0.8670538239797365  0.8012882155201484  0.5308409475613636  1.0000
  C   C26       1.0  0.3670538242155511  0.6987117843036545  0.4691590525229901  1.0000
  C   C27       1.0  0.1329461755486342  0.3012882155788808  0.969159052565167  1.0000
  C   C28       1.0  0.6329461753128195  0.19871178436238685  0.030840947519186764  1.0000
  C   C29       1.0  0.32673907322262685  0.8560387462777564  0.8492512195470154  1.0000
  C   C30       1.0  0.8267390729868122  0.6439612535460464  0.15074878053733826  1.0000
  C   C31       1.0  0.6732609273606247  0.3560387463364888  0.6507487805795151  1.0000
  C   C32       1.0  0.17326092759643946  0.1439612536047788  0.3492512195048386  1.0000
  C   C33       1.0  0.43527148319469816  0.9351854188710794  0.8331446639220373  1.0000
  C   C34       1.0  0.9352714829588835  0.5648145809527235  0.16685533616231632  1.0000
  C   C35       1.0  0.5647285173885535  0.4351854189298117  0.6668553357335977  1.0000
  C   C36       1.0  0.06472851762436815  0.0648145810114559  0.3331446638798606  1.0000
  C   C37       1.0  0.4592031069599587  0.026102632475208852  0.8707176971407588  1.0000
  C   C38       1.0  0.959203106724144  0.47389736746605876  0.12928230294359508  1.0000
  C   C39       1.0  0.5407968936232929  0.5261026324164765  0.6292823029857719  1.0000
  C   C40       1.0  0.0407968938591076  0.9738973674073264  0.3707176970985818  1.0000
  C   C41       1.0  0.5662409699355468  0.09789413074801528  0.8568860044798111  1.0000
  C   C42       1.0  0.0662409701713615  0.40210586919325236  0.1431139956045426  1.0000
  C   C43       1.0  0.4337590295928238  0.5978941306892829  0.6431139956467194  1.0000
  C   C44       1.0  0.9337590304118902  0.9021058691345201  0.35688600443763424  1.0000
  C   C45       1.0  0.6540414223207945  0.07878370029089624  0.8050093889905563  1.0000
  C   C46       1.0  0.1540414225566092  0.42121629965037144  0.19499061109379737  1.0000
  C   C47       1.0  0.3459585772075761  0.5787837002321639  0.6949906111359743  1.0000
  C   C48       1.0  0.8459585769717614  0.9212162995916391  0.30500938894837953  1.0000
  C   C49       1.0  0.5211340336925506  0.9192145325832785  0.778993538640414  1.0000
  C   C50       1.0  0.021134032873484324  0.5807854672405245  0.2210064614439398  1.0000
  C   C51       1.0  0.47886596689070093  0.4192145326420108  0.7210064610152211  1.0000
  C   C52       1.0  0.9788659666548863  0.08078546729925679  0.2789935385982371  1.0000
  C   C53       1.0  0.6319177359360659  0.99073069366996  0.7662925161077402  1.0000
  C   C54       1.0  0.13191773617188066  0.509269306153843  0.23370748397661353  1.0000
  C   C55       1.0  0.3680822646471857  0.4907306937286923  0.7337074840187904  1.0000
  C   C56       1.0  0.868082264411371  0.009269306212575348  0.2662925160655633  1.0000
  C   C57       1.0  0.43671399080048007  0.13243801114808398  0.6286732212542298  1.0000
  C   C58       1.0  0.9367139916195465  0.3675619887931837  0.37132677883012394  1.0000
  C   C59       1.0  0.5632860087278905  0.6324380110893516  0.8713267788723008  1.0000
  C   C60       1.0  0.06328600896370519  0.8675619887344513  0.12867322121205294  1.0000
  C   C61       1.0  0.4203188189412785  0.19279905496603356  0.573363713641269  1.0000
  C   C62       1.0  0.9203188187054638  0.3072009449752341  0.42663628644308466  1.0000
  C   C63       1.0  0.5796811816419731  0.6927990549073012  0.9266362864852615  1.0000
  C   C64       1.0  0.07968118187778783  0.8072009449165019  0.0733637135990922  1.0000
  C   C65       1.0  0.31634455937006145  0.27083797817772143  0.570911647502268  1.0000
  C   C66       1.0  0.8163445591342467  0.2291620217635462  0.4290883525820858  1.0000
  C   C67       1.0  0.6836554401583091  0.770837978920371  0.9290883526242627  1.0000
  C   C68       1.0  0.18365544039412388  0.7291620217048138  0.0709116474600911  1.0000
  C   C69       1.0  0.22820939851014055  0.2898895976222665  0.6230456163561113  1.0000
  C   C70       1.0  0.7282093982743258  0.21011040231900116  0.37695438372824236  1.0000
  C   C71       1.0  0.77179060101823  0.789889597563534  0.8769543837704192  1.0000
  C   C72       1.0  0.27179060125404475  0.7101104022602689  0.12304561631393451  1.0000
  C   C73       1.0  0.12224875999404673  0.37536883797310255  0.6216429908631674  1.0000
  C   C74       1.0  0.622248759758232  0.12463116276954696  0.37835700922118626  1.0000
  C   C75       1.0  0.8777512405892048  0.8753688379143703  0.8783570092633631  1.0000
  C   C76       1.0  0.3777512397701386  0.6246311627108146  0.12164299082099057  1.0000
  C   C77       1.0  0.35006895487578776  0.14847273471565695  0.6805289388699118  1.0000
  C   C78       1.0  0.850068955694854  0.3515272652256107  0.3194710612144419  1.0000
  C   C79       1.0  0.6499310446525829  0.6484727346569246  0.8194710612566187  1.0000
  C   C80       1.0  0.14993104488839756  0.8515272651668784  0.18052893882773496  1.0000
  C   C81       1.0  0.2452189404621863  0.22733158459304842  0.6781804702226043  1.0000
  C   C82       1.0  0.7452189402263716  0.27266841534821923  0.32181952986174944  1.0000
  C   C83       1.0  0.7547810601210654  0.727331585335698  0.8218195299039263  1.0000
  C   C84       1.0  0.25478106035688003  0.7726684152894868  0.17818047018042743  1.0000
  C   C85       1.0  0.06873069087149024  0.6123192763317745  0.8749028952899467  1.0000
  C   C86       1.0  0.5687306906356756  0.8876807234920283  0.12509710479440703  1.0000
  C   C87       1.0  0.9312693097117615  0.11231927639050687  0.625097104836584  1.0000
  C   C88       1.0  0.4312693088926951  0.3876807235507607  0.3749028952477698  1.0000
  C   C89       1.0  0.9697497977133058  0.5227285774612893  0.876413993456204  1.0000
  C   C90       1.0  0.46974979794912053  0.9772714223625137  0.12358600662814988  1.0000
  C   C91       1.0  0.030250201815064753  0.022728577520021637  0.6235860066703267  1.0000
  C   C92       1.0  0.5302502015792501  0.47727142242124604  0.376413993414027  1.0000
  C   C93       1.0  0.9530360992543472  0.45557809807179345  0.823795160878606  1.0000
  C   C94       1.0  0.4530360994901618  0.0444219018694742  0.17620483920574762  1.0000
  C   C95       1.0  0.04696390027402348  0.955578098013061  0.6762048387770289  1.0000
  C   C96       1.0  0.5469639000382088  0.5444219018107418  0.3237951608364293  1.0000
  C   C97       1.0  0.8564553678689397  0.37226335814367406  0.8247636202044011  1.0000
  C   C98       1.0  0.3564553681047543  0.12773664179759356  0.17523637940905715  1.0000
  C   C99       1.0  0.143544632714312  0.8722633580849417  0.675236379451234  1.0000
  C   C100      1.0  0.6435446324784974  0.6277366417388612  0.32476362063311975  1.0000
  C   C101      1.0  0.7748582857572849  0.35564890770628554  0.8790183175493583  1.0000
  C   C102      1.0  0.2748582859930996  0.1443510922349821  0.12098168253499529  1.0000
  C   C103      1.0  0.22514171377108574  0.8556489084489352  0.6209816825771722  1.0000
  C   C104      1.0  0.7251417145901521  0.6443510921762499  0.3790183175071815  1.0000
  C   C105      1.0  0.887439886078622  0.504262130276485  0.9309998433870976  1.0000
  C   C106      1.0  0.3874398863144366  0.9957378695473179  0.06900015669725616  1.0000
  C   C107      1.0  0.1125601134497487  0.004262130335217359  0.569000156739433  1.0000
  C   C108      1.0  0.612560113213934  0.49573786960605026  0.43099984334492075  1.0000
  C   C109      1.0  0.7896821722449939  0.4203580885677588  0.9317926511387562  1.0000
  C   C110      1.0  0.2896821714259276  0.0796419113735088  0.06820734894559757  1.0000
  C   C111      1.0  0.21031782833825768  0.9203580885090265  0.5682073489877745  1.0000
  C   C112      1.0  0.710317828102443  0.5796419113147765  0.43179265109657927  1.0000
  N   N1        1.0  0.9014892356680109  0.6076753067603543  0.6618852502958866  1.0000
  N   N2        1.0  0.4014892359038255  0.8923246930634486  0.3381147497884672  1.0000
  N   N3        1.0  0.09851076491524086  0.1076753068190867  0.838114749830644  1.0000
  N   N4        1.0  0.5985107646794262  0.39232469312218093  0.1618852502537097  1.0000
  N   N5        1.0  0.2613483920108369  0.8587616271609528  0.9047014072052644  1.0000
  N   N6        1.0  0.7613483917750222  0.64123837266285  0.09529859287908929  1.0000
  N   N7        1.0  0.7386516075175337  0.3587616272196852  0.5952985929212662  1.0000
  N   N8        1.0  0.2386516077533484  0.1412383727215824  0.40470140716308756  1.0000
  O   O1        1.0  0.9673829400609834  0.5941276334141401  0.5592551292176104  1.0000
  O   O2        1.0  0.467382939241917  0.9058723664096628  0.44074487086674335  1.0000
  O   O3        1.0  0.03261706052226834  0.09412763347287244  0.9407448709089202  1.0000
  O   O4        1.0  0.5326170602864537  0.40587236646839514  0.0592551291754335  1.0000
  O   O5        1.0  0.9654094190609144  0.7649457047966947  0.48994501447218647  1.0000
  O   O6        1.0  0.465409419296729  0.7350542950271083  0.5100549851412717  1.0000
  O   O7        1.0  0.0345905815223373  0.26494570485542707  0.010054985569990373  1.0000
  O   O8        1.0  0.5345905812865226  0.23505429508584058  0.9899450145143635  1.0000
  O   O9        1.0  0.2957803985431641  0.7833080620909023  0.8086386690447981  1.0000
  O   O10       1.0  0.7957803983073495  0.7166919377329005  0.19136133056866012  1.0000
  O   O11       1.0  0.7042196009852064  0.2833080621496347  0.691361330610837  1.0000
  O   O12       1.0  0.20421960122102115  0.21669193779163293  0.30863866947351676  1.0000
  O   O13       1.0  0.5013370445846604  0.8365461327916048  0.7390637259388394  1.0000
  O   O14       1.0  0.0013370437655940875  0.663453867032198  0.2609362736746188  1.0000
  O   O15       1.0  0.49866295599859123  0.3365461328503373  0.7609362737167956  1.0000
  O   O16       1.0  0.9986629557627765  0.1634538670909304  0.2390637263675581  1.0000
  O   O17       1.0  0.047737140723564546  0.3977213293774914  0.6692501786454743  1.0000
  O   O18       1.0  0.5477371404877498  0.10227867056377629  0.33074982143887943  1.0000
  O   O19       1.0  0.9522628588048061  0.897721329318759  0.8307498214810564  1.0000
  O   O20       1.0  0.45226285904062075  0.6022786705050439  0.16925017860329744  1.0000
  O   O21       1.0  0.11107629564816579  0.4269570781378992  0.5678983595717512  1.0000
  O   O22       1.0  0.6110762954123511  0.07304292180336847  0.4321016405126026  1.0000
  O   O23       1.0  0.8889237049350858  0.9269570780791668  0.9321016405547794  1.0000
  O   O24       1.0  0.3889237051709006  0.5730429217446361  0.06789835952957433  1.0000
  O   O25       1.0  0.16216150215781483  0.24343953122505924  0.7292664233603221  1.0000
  O   O26       1.0  0.6621615019220002  0.2565604687162084  0.2707335762531361  1.0000
  O   O27       1.0  0.8378384973705557  0.7434395311663269  0.7707335762953129  1.0000
  O   O28       1.0  0.33783849760637047  0.7565604686574761  0.22926642378904077  1.0000
  O   O29       1.0  0.0835359017455413  0.6746514551368188  0.9214931116160966  1.0000
  O   O30       1.0  0.5835359015097266  0.8253485446869839  0.07850688846825704  1.0000
  O   O31       1.0  0.9164640988377104  0.17465145519555125  0.5785068885104339  1.0000
  O   O32       1.0  0.41646409907352505  0.3253485447457164  0.4214931115739199  1.0000
  O   O33       1.0  0.13946415353897818  0.6244320762098983  0.8221689019095522  1.0000
  O   O34       1.0  0.6394641533031634  0.8755679236139047  0.17783109770390604  1.0000
  O   O35       1.0  0.8605358470442734  0.12443207626863059  0.6778310977460829  1.0000
  O   O36       1.0  0.36053584728008814  0.375567923672637  0.3221689018673753  1.0000
  O   O37       1.0  0.9018045902405273  0.5668438169280401  0.9827523722484227  1.0000
  O   O38       1.0  0.40180458942146086  0.9331561836971446  0.01724762736503553  1.0000
  O   O39       1.0  0.09819541034272444  0.06684381698677246  0.5172476274072124  1.0000
  O   O40       1.0  0.5981954101069097  0.4331561837558771  0.48275237267714133  1.0000
