data_image0
_chemical_formula_structural       H32C4N32
_chemical_formula_sum              "H32 C4 N32"
_cell_length_a       5.54204950901526
_cell_length_b       8.816800218705026
_cell_length_c       12.70669376041664
_cell_angle_alpha    105.04167186360507
_cell_angle_beta     97.6487470641858
_cell_angle_gamma    101.11166136602463

_space_group_name_H-M_alt    "P 1"
_space_group_IT_number       1

loop_
  _space_group_symop_operation_xyz
  'x, y, z'

loop_
  _atom_site_type_symbol
  _atom_site_label
  _atom_site_symmetry_multiplicity
  _atom_site_fract_x
  _atom_site_fract_y
  _atom_site_fract_z
  _atom_site_occupancy
  H   H1        1.0  0.4363345392949142  0.5435383741575684  0.4040169736641767  1.0000
  H   H2        1.0  0.5636654613358919  0.4564616255587932  0.5959830264579623  1.0000
  H   H3        1.0  0.005671503158037325  0.5931114827278706  0.3322196130199463  1.0000
  H   H4        1.0  0.9943284974727686  0.40688851698849116  0.6677803871021929  1.0000
  H   H5        1.0  0.8486102889270669  0.7735026227329307  0.09549219672039023  1.0000
  H   H6        1.0  0.15138970988272618  0.22649737698226596  0.9045078032958074  1.0000
  H   H7        1.0  0.7161774409720613  0.9173606843139163  0.1554393250697772  1.0000
  H   H8        1.0  0.28382255828097674  0.0826393166102777  0.8445606751859727  1.0000
  H   H9        1.0  0.5092988496051751  0.7520153439401898  0.24772867363912093  1.0000
  H   H10       1.0  0.49070115102563094  0.24798465577617204  0.7522713264830182  1.0000
  H   H11       1.0  0.6239253553152991  0.5938843020295161  0.16600878113645523  1.0000
  H   H12       1.0  0.3760746434944939  0.4061156976856805  0.8339912188797426  1.0000
  H   H13       1.0  0.4223103302031036  0.6812086953077754  0.10193662514423453  1.0000
  H   H14       1.0  0.5776896704277025  0.31879130440858633  0.8980633749779044  1.0000
  H   H15       1.0  0.524032954078627  0.13361037662324257  0.07777274376251304  1.0000
  H   H16       1.0  0.4759670447311661  0.8663896230919541  0.9222272562536847  1.0000
  H   H17       1.0  0.30004318689889903  0.9907125852674661  0.08929130622491072  1.0000
  H   H18       1.0  0.699956813731907  0.009287414448895488  0.9107086938972285  1.0000
  H   H19       1.0  0.6329455751424731  0.22770038924978922  0.27941970272054917  1.0000
  H   H20       1.0  0.367054425488333  0.7722996104665726  0.7205802974015899  1.0000
  H   H21       1.0  0.36391436200264554  0.09277683569969382  0.27827534996957165  1.0000
  H   H22       1.0  0.6360856390714055  0.9072231652256653  0.7217246503921196  1.0000
  H   H23       1.0  0.34523893923502336  0.2478439881288455  0.214729417018998  1.0000
  H   H24       1.0  0.6547610595747697  0.752156011586351  0.7852705829971997  1.0000
  H   H25       1.0  0.10556013169886158  0.881143886537803  0.2894831898730688  1.0000
  H   H26       1.0  0.8944398693751893  0.11885611438755612  0.7105168104886224  1.0000
  H   H27       1.0  0.19774493794222964  0.010793956080799003  0.41414964643217234  1.0000
  H   H28       1.0  0.8022550613108084  0.9892060448433949  0.5858503538235774  1.0000
  H   H29       1.0  0.6175003386291437  0.9717952784793936  0.3999607332871398  1.0000
  H   H30       1.0  0.3824996606238942  0.02820472244480033  0.60003926696861  1.0000
  H   H31       1.0  0.4170567605687134  0.8251087104957839  0.42427104828566226  1.0000
  H   H32       1.0  0.5829432405053375  0.17489129042957502  0.5757289520760289  1.0000
  C   C1        1.0  0.14894300814935815  0.36730728418582304  0.4155376287165702  1.0000
  C   C2        1.0  0.851056992481448  0.6326927155305386  0.5844623714055689  1.0000
  C   C3        1.0  0.01138354735276752  0.42856248746310655  0.18701991212223293  1.0000
  C   C4        1.0  0.9886164532780386  0.5714375122532551  0.8129800879999062  1.0000
  N   N1        1.0  0.2681190170297456  0.4636407563174372  0.35884783296662104  1.0000
  N   N2        1.0  0.7318809817800476  0.5363592433977594  0.6411521670495768  1.0000
  N   N3        1.0  0.9096653442644557  0.2803589465939423  0.3843050619706749  1.0000
  N   N4        1.0  0.09033465680959524  0.7196410543314168  0.6156949383910164  1.0000
  N   N5        1.0  0.8776542265452041  0.20155320330607993  0.461870443199224  1.0000
  N   N6        1.0  0.12234577408345523  0.7984467964043083  0.5381295561347376  1.0000
  N   N7        1.0  0.0884589260032373  0.2386493739937319  0.5351181834048998  1.0000
  N   N8        1.0  0.9115410750708136  0.7613506269316273  0.4648818169567913  1.0000
  N   N9        1.0  0.2648689165326287  0.34383995727698885  0.5080760334077862  1.0000
  N   N10       1.0  0.7351310845414223  0.6561600436483703  0.49192396695390506  1.0000
  N   N11       1.0  0.11860296897615744  0.5273794087031879  0.29237169587777206  1.0000
  N   N12       1.0  0.8813970320957469  0.4726205922161976  0.7076283036957417  1.0000
  N   N13       1.0  0.10901287182152383  0.3125306523910758  0.1287692652385864  1.0000
  N   N14       1.0  0.8909871269882692  0.6874693473241208  0.8712307347776113  1.0000
  N   N15       1.0  0.9530698755599724  0.25375545257376414  0.028453235893717472  1.0000
  N   N16       1.0  0.04693012369306552  0.7462445483504299  0.9715467643620324  1.0000
  N   N17       1.0  0.7726736434269084  0.33161315688904497  0.027301743990479303  1.0000
  N   N18       1.0  0.22732635720389768  0.6683868428273168  0.9726982561316598  1.0000
  N   N19       1.0  0.8016314378253614  0.4425326438771226  0.12729614872159395  1.0000
  N   N20       1.0  0.19836856142552994  0.5574673570410978  0.8727038507459784  1.0000
  N   N21       1.0  0.7842514541985254  0.8200989996750451  0.1667074494995177  1.0000
  N   N22       1.0  0.21574854643013414  0.17990100003534315  0.8332925498344439  1.0000
  N   N23       1.0  0.5665975199174476  0.7022588877074193  0.17090268993685348  1.0000
  N   N24       1.0  0.4334024788923455  0.2977411120077773  0.8290973100793442  1.0000
  N   N25       1.0  0.47634725369592484  0.06140537755620083  0.12709799340011693  1.0000
  N   N26       1.0  0.5236527451138683  0.9385946221589959  0.8729020066160808  1.0000
  N   N27       1.0  0.45289813958611314  0.1680071084606154  0.23073616762087398  1.0000
  N   N28       1.0  0.547101861044693  0.8319928912557464  0.7692638325012652  1.0000
  N   N29       1.0  0.2595716975394491  0.9631831495459291  0.34289113920186876  1.0000
  N   N30       1.0  0.740428303091357  0.03681685017043265  0.6571088609202704  1.0000
  N   N31       1.0  0.45522136387822454  0.882702195291753  0.3655847011777611  1.0000
  N   N32       1.0  0.5447786371958264  0.11729780563360617  0.6344152991839301  1.0000
