data_image0
_chemical_formula_structural       H10C4N8O6I
_chemical_formula_sum              "H10 C4 N8 O6 I1"
_cell_length_a       5.641034375653754
_cell_length_b       7.342773721720829
_cell_length_c       7.874926080227683
_cell_angle_alpha    116.93111323118382
_cell_angle_beta     92.35554648260137
_cell_angle_gamma    90.75168252848304

_space_group_name_H-M_alt    "P 1"
_space_group_IT_number       1

loop_
  _space_group_symop_operation_xyz
  'x, y, z'

loop_
  _atom_site_type_symbol
  _atom_site_label
  _atom_site_symmetry_multiplicity
  _atom_site_fract_x
  _atom_site_fract_y
  _atom_site_fract_z
  _atom_site_occupancy
  H   H1        1.0  0.7763765040699846  0.5207231069552065  0.27911842673686865  1.0000
  H   H2        1.0  0.22362349639941187  0.47927689226912623  0.7208815733393444  1.0000
  H   H3        1.0  0.18796112445579208  0.7762112823769652  0.3033782629609871  1.0000
  H   H4        1.0  0.8120388760601013  0.223788718209806  0.6966217371163667  1.0000
  H   H5        1.0  0.8597303934469757  0.6999383289231114  0.6789585414880313  1.0000
  H   H6        1.0  0.14026960706891758  0.3000616716636598  0.3210414585893223  1.0000
  H   H7        1.0  0.20002827593690287  0.9883945581868051  0.7193773550522392  1.0000
  H   H8        1.0  0.7999717245324935  0.011605441037527591  0.2806226450239739  1.0000
  H   H9        1.0  0.5772735816638509  0.4885422665075433  0.8896128953749456  1.0000
  H   H10       1.0  0.42272641703237196  0.5114577327271398  0.11038710468593348  1.0000
  C   C1        1.0  0.6953913057442156  0.7474627413042522  0.6352226848265351  1.0000
  C   C2        1.0  0.3046086947716777  0.25253725928251897  0.3647773152508186  1.0000
  C   C3        1.0  0.3489125121091217  0.8909383943162671  0.6582784508218635  1.0000
  C   C4        1.0  0.6510874884067714  0.1090616062705042  0.3417215492554901  1.0000
  N   N1        1.0  0.591257200468834  0.9621546584427035  0.9566529027618726  1.0000
  N   N2        1.0  0.4087428000470593  0.037845342144067574  0.043347097315480816  1.0000
  N   N3        1.0  0.5409932184965691  0.873416633637903  0.762866278546823  1.0000
  N   N4        1.0  0.4590067802461505  0.12658336695921876  0.23713372151519665  1.0000
  N   N5        1.0  0.6037981167252398  0.6896010817337705  0.461663060399536  1.0000
  N   N6        1.0  0.39620188379065363  0.3103989188530005  0.5383369396778177  1.0000
  N   N7        1.0  0.3861962673962264  0.781278675841649  0.4764726787137479  1.0000
  N   N8        1.0  0.613803733119667  0.21872132474512213  0.5235273213636057  1.0000
  O   O1        1.0  0.8828599505325427  0.4115480851754006  0.19267042814188312  1.0000
  O   O2        1.0  0.11714004998335062  0.5884519154113707  0.8073295719354706  1.0000
  O   O3        1.0  0.07363924673144061  0.7867534293647701  0.20505914567364045  1.0000
  O   O4        1.0  0.9263607537844527  0.21324657122200097  0.794940854403713  1.0000
  O   O5        1.0  0.6792562736638651  0.6085002252893644  0.9725023356802772  1.0000
  O   O6        1.0  0.3207437268055314  0.3914997739349682  0.027497664395935872  1.0000
  I   I1        1.0  1.167358412720909e-10  0.4999999999897397  0.999999999923402  1.0000
