data_image0
_chemical_formula_structural       H12C8N16O12I4
_chemical_formula_sum              "H12 C8 N16 O12 I4"
_cell_length_a       8.94135752765111
_cell_length_b       10.109779613604317
_cell_length_c       6.97566659380366
_cell_angle_alpha    90.0
_cell_angle_beta     109.52673797953919
_cell_angle_gamma    90.0

_space_group_name_H-M_alt    "P 1"
_space_group_IT_number       1

loop_
  _space_group_symop_operation_xyz
  'x, y, z'

loop_
  _atom_site_type_symbol
  _atom_site_label
  _atom_site_symmetry_multiplicity
  _atom_site_fract_x
  _atom_site_fract_y
  _atom_site_fract_z
  _atom_site_occupancy
  H   H1        1.0  0.8043980246775541  0.5252980057897285  0.5641072464684846  1.0000
  H   H2        1.0  0.1956019765348472  0.02529800547341684  0.9358927542869157  1.0000
  H   H3        1.0  0.1956019755384446  0.47470199385375356  0.4358927542467146  1.0000
  H   H4        1.0  0.8043980236811515  0.9747019941700653  0.0641072464282834  1.0000
  H   H5        1.0  0.04222225756104758  0.7377270163202894  0.5641233284803375  1.0000
  H   H6        1.0  0.9577777421326774  0.23772701600397764  0.9358766707617684  1.0000
  H   H7        1.0  0.9577777422526451  0.2622729833231929  0.43587667071384506  1.0000
  H   H8        1.0  0.04222225656464494  0.7622729836395046  0.06412332844013632  1.0000
  H   H9        1.0  0.6499381160527155  0.9797453672156448  0.55467251823308  1.0000
  H   H10       1.0  0.3500618836410096  0.479745366899333  0.9453274810090259  1.0000
  H   H11       1.0  0.3500618837609773  0.020254632427837455  0.4453274809611026  1.0000
  H   H12       1.0  0.6499381161726833  0.5202546327441492  0.05467251818515669  1.0000
  C   C1        1.0  0.9244380792996139  0.7666726720303519  0.5611235206993878  1.0000
  C   C2        1.0  0.07556192079641712  0.2666726717140402  0.9388764800637347  1.0000
  C   C3        1.0  0.07556192091638482  0.23332732860227154  0.43887648001581137  1.0000
  C   C4        1.0  0.9244380794195818  0.733327327929442  0.06112352065146455  1.0000
  C   C5        1.0  0.7196740580171617  0.8910120283807562  0.5594747363888305  1.0000
  C   C6        1.0  0.2803259420788694  0.3910120280644445  0.9405252643742921  1.0000
  C   C7        1.0  0.2803259421988371  0.10898797126272596  0.4405252643263687  1.0000
  C   C8        1.0  0.7196740581371294  0.6089879715790376  0.05947473634090719  1.0000
  N   N1        1.0  0.938316857680371  0.011465784065561216  0.5207179594239969  1.0000
  N   N2        1.0  0.061683142415660135  0.511465784381873  0.9792820413391257  1.0000
  N   N3        1.0  0.06168314141925747  0.988534215577921  0.4792820412989244  1.0000
  N   N4        1.0  0.9383168578003387  0.4885342162507505  0.020717959376073593  1.0000
  N   N5        1.0  0.8704814943120698  0.8952784665869816  0.5500859612639051  1.0000
  N   N6        1.0  0.12951850578396118  0.39527846725981114  0.9499140394992174  1.0000
  N   N7        1.0  0.1295185059039289  0.10472153305650056  0.4499140394512941  1.0000
  N   N8        1.0  0.8704814944320376  0.6047215333728123  0.050085961215981814  1.0000
  N   N9        1.0  0.8107948624512907  0.6890454882543638  0.5742505623719242  1.0000
  N   N10       1.0  0.1892051372424342  0.18904548793805212  0.9257494368701816  1.0000
  N   N11       1.0  0.1892051373624019  0.3109545123782596  0.4257494368222584  1.0000
  N   N12       1.0  0.8107948625712585  0.81095451170543  0.07425056232400096  1.0000
  N   N13       1.0  0.6821556510219509  0.7667086728151277  0.5722523570129278  1.0000
  N   N14       1.0  0.3178443486717743  0.26670867249881597  0.927747642229178  1.0000
  N   N15       1.0  0.31784434879174206  0.23329132682835446  0.4277476421812549  1.0000
  N   N16       1.0  0.6821556511419185  0.7332913271446663  0.07225235696500447  1.0000
  O   O1        1.0  0.8130517624357624  0.4242419215774475  0.5683287365192692  1.0000
  O   O2        1.0  0.18694823766026863  0.9242419209046181  0.9316712642438533  1.0000
  O   O3        1.0  0.18694823778023634  0.575758079055176  0.43167126419593005  1.0000
  O   O4        1.0  0.81305176255573  0.07575807873886421  0.06832873647134588  1.0000
  O   O5        1.0  0.5422816697219921  0.437002839711251  0.6958140601558582  1.0000
  O   O6        1.0  0.45771832997173306  0.9370028390384215  0.8041859390862477  1.0000
  O   O7        1.0  0.4577183300917008  0.5629971609213724  0.30418593903832447  1.0000
  O   O8        1.0  0.5422816698419598  0.06299716060506073  0.19581406010793487  1.0000
  O   O9        1.0  0.6853208193296745  0.1980514300534945  0.6580816410934855  1.0000
  O   O10       1.0  0.31467918076635654  0.6980514303698062  0.841918359669637  1.0000
  O   O11       1.0  0.3146791808863243  0.8019485695899877  0.34191835962171374  1.0000
  O   O12       1.0  0.6853208194496422  0.30194857026281724  0.15808164104556222  1.0000
  I   I1        1.0  0.604665997448578  0.3444745249751695  0.5104211396700365  1.0000
  I   I2        1.0  0.3953340022451471  0.8444745243023399  0.9895788595720695  1.0000
  I   I3        1.0  0.39533400236511473  0.6555254756574539  0.48957885952414604  1.0000
  I   I4        1.0  0.6046659975685458  0.15552547534114217  0.010421139622113227  1.0000
