data_image0
_chemical_formula_structural       H18C8N12O16I2
_chemical_formula_sum              "H18 C8 N12 O16 I2"
_cell_length_a       8.083107447819694
_cell_length_b       8.617168881378355
_cell_length_c       9.064144581621122
_cell_angle_alpha    93.70575873709706
_cell_angle_beta     107.72261940897354
_cell_angle_gamma    116.77199823605443

_space_group_name_H-M_alt    "P 1"
_space_group_IT_number       1

loop_
  _space_group_symop_operation_xyz
  'x, y, z'

loop_
  _atom_site_type_symbol
  _atom_site_label
  _atom_site_symmetry_multiplicity
  _atom_site_fract_x
  _atom_site_fract_y
  _atom_site_fract_z
  _atom_site_occupancy
  H   H1        1.0  0.8011543295637708  0.9278012640654818  0.8858326694569626  1.0000
  H   H2        1.0  0.19884566972885967  0.07219873596382967  0.11416733050895592  1.0000
  H   H3        1.0  0.9554108722456834  0.04619342275456092  0.6755557337667689  1.0000
  H   H4        1.0  0.04458912828252297  0.9538065772703593  0.3244442662007495  1.0000
  H   H5        1.0  0.8530590531876036  0.10329496564006443  0.5011917388411565  1.0000
  H   H6        1.0  0.14694094610502695  0.8967050343892472  0.4988082611247621  1.0000
  H   H7        1.0  0.5636551414660904  0.5446047858655919  0.8013549868448285  1.0000
  H   H8        1.0  0.4363448578265401  0.4553952141637197  0.19864501312109  1.0000
  H   H9        1.0  0.306236721354118  0.39335186933943395  0.6806527682070592  1.0000
  H   H10       1.0  0.6937632791740883  0.6066481306854861  0.31934723176045926  1.0000
  H   H11       1.0  0.22782653322941435  0.7971511776212963  0.15997089358173697  1.0000
  H   H12       1.0  0.7721734660632162  0.20284882240801536  0.8400291063841816  1.0000
  H   H13       1.0  0.04250249882828437  0.5912408960626647  0.1736234873954673  1.0000
  H   H14       1.0  0.957497501699922  0.40875910396225534  0.8263765125720512  1.0000
  H   H15       1.0  0.33761640047503716  0.5753253046269615  0.9847605433660115  1.0000
  H   H16       1.0  0.6623835988175936  0.4246746954023501  0.015239456599907076  1.0000
  H   H17       1.0  0.25362453292415615  0.3639434763650728  0.9367448850860322  1.0000
  H   H18       1.0  0.7463754663684743  0.6360565236642387  0.06325511487988648  1.0000
  C   C1        1.0  0.6571621889071511  0.8755258761797925  0.5360620486243466  1.0000
  C   C2        1.0  0.34283781038547956  0.12447412384951918  0.463937951341572  1.0000
  C   C3        1.0  0.4415928557377612  0.6093025001119741  0.5969469085164159  1.0000
  C   C4        1.0  0.5584071435548694  0.3906974999173376  0.40305309144950274  1.0000
  C   C5        1.0  0.28256352427032533  0.5780657665446156  0.45148648126797714  1.0000
  C   C6        1.0  0.7174364750223052  0.42193423348469594  0.5485135186979414  1.0000
  C   C7        1.0  0.3163776169799447  0.7022375859023223  0.350682740974782  1.0000
  C   C8        1.0  0.6836223823126858  0.2977624141269892  0.6493172589911366  1.0000
  N   N1        1.0  0.623734105687316  0.7591459720960342  0.6322089391874028  1.0000
  N   N2        1.0  0.37626589360531454  0.24085402793327737  0.36779106077851564  1.0000
  N   N3        1.0  0.5059593043278744  0.8461667202947701  0.3984473500670422  1.0000
  N   N4        1.0  0.4940406949647561  0.1538332797345414  0.6015526498988764  1.0000
  N   N5        1.0  0.8329446316708536  0.016427177276990522  0.5741344477741733  1.0000
  N   N6        1.0  0.16705536762177695  0.9835728227523212  0.42586555219174527  1.0000
  N   N7        1.0  0.4361382301722551  0.5079536593221006  0.7006883127848527  1.0000
  N   N8        1.0  0.5638617691203753  0.4920463407072109  0.2993116871810658  1.0000
  N   N9        1.0  0.09474689816863628  0.42579431071739554  0.406230757303521  1.0000
  N   N10       1.0  0.9052531011239944  0.5742056893119161  0.5937692426623976  1.0000
  N   N11       1.0  0.18548690617172708  0.6953174779517096  0.21778730323771167  1.0000
  N   N12       1.0  0.8145130943564791  0.30468252207321034  0.7822126967298066  1.0000
  O   O1        1.0  0.8233791517375347  0.03965985886525471  0.9632546571023147  1.0000
  O   O2        1.0  0.17662084755509566  0.9603401411640567  0.03674534286360385  1.0000
  O   O3        1.0  0.4551913009023076  0.8153803331580096  0.9798048835139207  1.0000
  O   O4        1.0  0.5448086996258987  0.18461966686691053  0.020195116453597707  1.0000
  O   O5        1.0  0.791838651260203  0.8319514324226259  0.19798887289582967  1.0000
  O   O6        1.0  0.20816134803242764  0.16804856760668563  0.8020111270700889  1.0000
  O   O7        1.0  0.7781747445360344  0.792365981259942  0.7648206600911771  1.0000
  O   O8        1.0  0.22182525475659615  0.2076340187693696  0.2351793398747414  1.0000
  O   O9        1.0  0.544789350734319  0.9736440371899251  0.31556477408408024  1.0000
  O   O10       1.0  0.45521064855831167  0.026355962839386435  0.6844352258818384  1.0000
  O   O11       1.0  0.07036339965426104  0.31187483383827186  0.4910587662847252  1.0000
  O   O12       1.0  0.9296366008739452  0.6881251661866482  0.5089412336827932  1.0000
  O   O13       1.0  0.9523459081208812  0.4019233648585208  0.2839590539361921  1.0000
  O   O14       1.0  0.047654092407325314  0.5980766351663993  0.7160409460313264  1.0000
  O   O15       1.0  0.2662280809576927  0.46062383373846566  0.011852936440807777  1.0000
  O   O16       1.0  0.7337719183349378  0.5393761662908458  0.9881470635251107  1.0000
  I   I1        1.0  0.7040264138836425  0.9833830015188759  0.1198052610252097  1.0000
  I   I2        1.0  0.29597358664456364  0.016616998506044065  0.8801947389423087  1.0000
