data_image0
_chemical_formula_structural       H38C90O8Cl36
_chemical_formula_sum              "H38 C90 O8 Cl36"
_cell_length_a       9.650674155104118
_cell_length_b       13.57773877763771
_cell_length_c       19.258846101869732
_cell_angle_alpha    91.13501946692823
_cell_angle_beta     94.56775868312849
_cell_angle_gamma    103.94197829489744

_space_group_name_H-M_alt    "P 1"
_space_group_IT_number       1

loop_
  _space_group_symop_operation_xyz
  'x, y, z'

loop_
  _atom_site_type_symbol
  _atom_site_label
  _atom_site_symmetry_multiplicity
  _atom_site_fract_x
  _atom_site_fract_y
  _atom_site_fract_z
  _atom_site_occupancy
  H   H1        1.0  0.03925047056756875  0.3852985781182004  0.41170908938067385  1.0000
  H   H2        1.0  0.9607495290293053  0.6147014216020883  0.5882909103556193  1.0000
  H   H3        1.0  0.8505241999483262  0.41922083841566044  0.4805193947164617  1.0000
  H   H4        1.0  0.149475799735075  0.5807791613335549  0.5194806055411411  1.0000
  H   H5        1.0  0.856378538527551  0.1535122908194846  0.5990337280825397  1.0000
  H   H6        1.0  0.14362146132144094  0.8464877096597146  0.4009662716548956  1.0000
  H   H7        1.0  0.04870745383452076  0.12017858482237775  0.5309938714115445  1.0000
  H   H8        1.0  0.9512925468003885  0.8798214149019793  0.46900612832783745  1.0000
  H   H9        1.0  0.6859992911933661  0.3757843120530511  0.5671403743514014  1.0000
  H   H10       1.0  0.3140007086556258  0.6242156884261483  0.43285962538603395  1.0000
  H   H11       1.0  0.5402762522950669  0.7043625183578118  0.3599596324809506  1.0000
  H   H12       1.0  0.459723747553925  0.2956374821213875  0.6400403672564848  1.0000
  H   H13       1.0  0.6605416883546745  0.5607050732037486  0.3660887338875913  1.0000
  H   H14       1.0  0.3394583114943174  0.4392949272754507  0.6339112658498441  1.0000
  H   H15       1.0  0.016475268860077587  0.7404927628283384  0.2671548451654508  1.0000
  H   H16       1.0  0.9835247307367965  0.2595072368919504  0.7328451545708423  1.0000
  H   H17       1.0  0.895900582371897  0.8830003902308434  0.2600543272010614  1.0000
  H   H18       1.0  0.10409941747709488  0.11699961024835585  0.739945672536374  1.0000
  H   H19       1.0  0.02668631390043747  0.5754325294704207  0.30026092397751725  1.0000
  H   H20       1.0  0.9733136860350814  0.4245674710377052  0.6997390762812278  1.0000
  H   H21       1.0  0.7813343541105237  0.3765658585898637  0.0351057475456335  1.0000
  H   H22       1.0  0.2186656455728774  0.6234341411593516  0.9648942527119692  1.0000
  H   H23       1.0  0.8723844281323131  0.513763253211545  0.9544890115105555  1.0000
  H   H24       1.0  0.12761557155108805  0.48623674653767024  0.045510988747047246  1.0000
  H   H25       1.0  0.7970141311623308  0.7368048134750868  0.09955543374698571  1.0000
  H   H26       1.0  0.2029858685210703  0.26319518627412847  0.900444566510617  1.0000
  H   H27       1.0  0.7050800492623291  0.5989324285670625  0.18067761782672798  1.0000
  H   H28       1.0  0.2949199517112251  0.4010675719451317  0.8193223824351058  1.0000
  H   H29       1.0  0.9221256186310756  0.6801752521239067  0.9223721430613389  1.0000
  H   H30       1.0  0.0778743813044433  0.3198247483842192  0.07762785719740606  1.0000
  H   H31       1.0  0.4266506991919094  0.6254031259582018  0.1924863353837608  1.0000
  H   H32       1.0  0.5733493004914918  0.3745968737910135  0.8075136648738419  1.0000
  H   H33       1.0  0.3632966249907485  0.6948051333791724  0.2601394835899848  1.0000
  H   H34       1.0  0.6367033746061255  0.30519486634111637  0.7398605161463083  1.0000
  H   H35       1.0  0.9946862538470527  0.014547973111126523  0.06884819997449813  1.0000
  H   H36       1.0  0.00531374703997452  0.9854520273721413  0.9311517997660261  1.0000
  H   H37       1.0  0.1570353993471339  0.06822183138101542  0.1242715730931719  1.0000
  H   H38       1.0  0.8429646002497401  0.9317781683392732  0.8757284266431212  1.0000
  C   C1        1.0  0.494141914132645  0.16519112614339818  0.2992777729885357  1.0000
  C   C2        1.0  0.505858085802874  0.8348088743647278  0.7007222272702093  1.0000
  C   C3        1.0  0.38787949422678286  0.1846773445046877  0.34407082452004556  1.0000
  C   C4        1.0  0.6121205053700912  0.8153226552156009  0.6559291752162476  1.0000
  C   C5        1.0  0.41009127433996323  0.2782152662202319  0.38280079323775634  1.0000
  C   C6        1.0  0.5899087252569108  0.7217847335000569  0.6171992064985368  1.0000
  C   C7        1.0  0.30484676238974073  0.2992320681197899  0.42280297853727844  1.0000
  C   C8        1.0  0.6951532374592512  0.7007679323594094  0.577197021200157  1.0000
  C   C9        1.0  0.17155265971995112  0.22891306173073794  0.42582280750204254  1.0000
  C   C10       1.0  0.828447341167076  0.7710869387525296  0.5741771922384816  1.0000
  C   C11       1.0  0.1498100968452208  0.13550010055552683  0.38801089774295505  1.0000
  C   C12       1.0  0.8501899027516533  0.864499899164762  0.611989101993338  1.0000
  C   C13       1.0  0.2558309521406081  0.1125731248855563  0.3493530625132041  1.0000
  C   C14       1.0  0.7441690474562659  0.8874268748347324  0.650646937223089  1.0000
  C   C15       1.0  0.05907721755507058  0.25111024963246065  0.46742572991555  1.0000
  C   C16       1.0  0.9409227830798387  0.7488897500918965  0.532574269823832  1.0000
  C   C17       1.0  0.0029844303678764356  0.3357471544320165  0.45379435616711694  1.0000
  C   C18       1.0  0.9970155693155246  0.6642528453171986  0.5462056440904859  1.0000
  C   C19       1.0  0.8951687299644786  0.35430748978082566  0.49221883726658366  1.0000
  C   C20       1.0  0.10483127100907548  0.6456925107313685  0.5077811629952502  1.0000
  C   C21       1.0  0.8421012125374644  0.2890063835863502  0.5447127287323207  1.0000
  C   C22       1.0  0.157898788183972  0.7109936161669335  0.4552872715283709  1.0000
  C   C23       1.0  0.8983859831913579  0.2043067266276456  0.5584564826248676  1.0000
  C   C24       1.0  0.10161401744355159  0.7956932730967116  0.44154351711451445  1.0000
  C   C25       1.0  0.005403532853400781  0.18572140383248253  0.5201498377820453  1.0000
  C   C26       1.0  0.9945964667434734  0.8142785958878062  0.4798501619542479  1.0000
  C   C27       1.0  0.7261940507510433  0.30846649142024496  0.5833828190110643  1.0000
  C   C28       1.0  0.27380594909794864  0.6915335090589544  0.4166171807263711  1.0000
  C   C29       1.0  0.5388848493783504  0.07018164543875631  0.3025928830800424  1.0000
  C   C30       1.0  0.46111515134308595  0.9298183543145272  0.6974071171806491  1.0000
  C   C31       1.0  0.5802094973055772  0.032041429016237875  0.3670736250628287  1.0000
  C   C32       1.0  0.4197905022912968  0.9679585707040508  0.6329263746734644  1.0000
  C   C33       1.0  0.6281402031576532  0.9425140334779101  0.3694328881954217  1.0000
  C   C34       1.0  0.371859796525748  0.057485966271305235  0.6305671120621811  1.0000
  C   C35       1.0  0.6435980539213173  0.8896125675523266  0.308115982384774  1.0000
  C   C36       1.0  0.3564019468001191  0.11038743220095694  0.6918840178759177  1.0000
  C   C37       1.0  0.5980218652730055  0.924803137279896  0.24406564356961097  1.0000
  C   C38       1.0  0.40197813441039554  0.07519686246931925  0.7559343566879918  1.0000
  C   C39       1.0  0.5457721954463055  0.01230996390634506  0.24130864397614488  1.0000
  C   C40       1.0  0.45422780527513085  0.9876900358469386  0.7586913562845468  1.0000
  C   C41       1.0  0.7113208117416507  0.8025358227994611  0.3104736299766887  1.0000
  C   C42       1.0  0.2886791881073412  0.1974641776797382  0.6895263697607467  1.0000
  C   C43       1.0  0.6449086698853792  0.7113729897159715  0.3402427302597012  1.0000
  C   C44       1.0  0.35509132979802194  0.28862701003324376  0.6597572699979016  1.0000
  C   C45       1.0  0.7118166042110371  0.6317180630181002  0.3435406792579494  1.0000
  C   C46       1.0  0.2881833964238723  0.36828193670625703  0.6564593204814325  1.0000
  C   C47       1.0  0.8466999692073992  0.6422105591980825  0.31792226808992935  1.0000
  C   C48       1.0  0.15330003047600196  0.3577894405511329  0.6820777321676733  1.0000
  C   C49       1.0  0.9120491360292918  0.7327911736132511  0.28740123347467506  1.0000
  C   C50       1.0  0.08795086469214454  0.26720882614003255  0.7125987667860165  1.0000
  C   C51       1.0  0.8447575560399831  0.8125212776216201  0.28344080479767486  1.0000
  C   C52       1.0  0.15524244389553574  0.18747872288650574  0.7165591954610702  1.0000
  C   C53       1.0  0.922406427327001  0.5606590542717693  0.3241405720086285  1.0000
  C   C54       1.0  0.077593572521991  0.43934094620742997  0.6758594277288069  1.0000
  C   C55       1.0  0.5554764567416912  0.2418037932362351  0.2509798589455856  1.0000
  C   C56       1.0  0.44452354319382764  0.7581962072718907  0.7490201413131594  1.0000
  C   C57       1.0  0.7056138448363826  0.27020607244736083  0.24407391511750826  1.0000
  C   C58       1.0  0.29438615476049146  0.7297939272729278  0.755926084618785  1.0000
  C   C59       1.0  0.7641325260648942  0.34552906225100344  0.1986309805590792  1.0000
  C   C60       1.0  0.23586747378409773  0.6544709382281959  0.8013690191783562  1.0000
  C   C61       1.0  0.6771042301421916  0.39761807129100035  0.15971051523039764  1.0000
  C   C62       1.0  0.3228957694546825  0.6023819284292884  0.8402894845058956  1.0000
  C   C63       1.0  0.5285414199980464  0.3696374371517721  0.16565497002994742  1.0000
  C   C64       1.0  0.4714585795988277  0.6303625625685166  0.8343450297063457  1.0000
  C   C65       1.0  0.46790514465503824  0.29252744252050855  0.20919830941462325  1.0000
  C   C66       1.0  0.5320948551939536  0.7074725579586907  0.7908016903228122  1.0000
  C   C67       1.0  0.7377740915685755  0.47937355765443407  0.11287652711649127  1.0000
  C   C68       1.0  0.26222590802829837  0.5206264420658546  0.8871234726198018  1.0000
  C   C69       1.0  0.7862980526295981  0.4553972969473978  0.04949932617093118  1.0000
  C   C70       1.0  0.2137019483439562  0.5446027035647966  0.9505006740909029  1.0000
  C   C71       1.0  0.836656253130143  0.5321090566542729  0.0044344466955022754  1.0000
  C   C72       1.0  0.1633437475047663  0.4678909430700841  0.9955655530438797  1.0000
  C   C73       1.0  0.8396447223756655  0.6332939198800831  0.022074192615393794  1.0000
  C   C74       1.0  0.16035527730773586  0.3667060798691323  0.977925807642209  1.0000
  C   C75       1.0  0.7930160512993889  0.6577788419761099  0.08607680914789766  1.0000
  C   C76       1.0  0.20698394838401218  0.34222115777310536  0.9139231911097052  1.0000
  C   C77       1.0  0.7420927550701258  0.5810455625730133  0.1309534141378595  1.0000
  C   C78       1.0  0.2579072448653932  0.41895443793511256  0.8690465861208856  1.0000
  C   C79       1.0  0.8880070108957266  0.7106163734046332  0.970891244330248  1.0000
  C   C80       1.0  0.11199298982570974  0.2893836263486504  0.029108755930443698  1.0000
  C   C81       1.0  0.3600018290738458  0.022024895429425838  0.9894168458380317  1.0000
  C   C82       1.0  0.6399981706095553  0.9779751043197895  0.010583154419571118  1.0000
  C   C83       1.0  0.49272309627643174  0.10532804157770623  0.0007204400215582037  1.0000
  C   C84       1.0  0.5072769033204423  0.8946719581425825  0.9992795597147348  1.0000
  C   C85       1.0  0.6233796691433624  0.0846819943976519  0.010630565966427264  1.0000
  C   C86       1.0  0.376620331491547  0.9153180053267052  0.9893694337729547  1.0000
  C   C87       1.0  0.3378593872279496  0.629244492363987  0.22343300851769823  1.0000
  C   C88       1.0  0.6621406123689245  0.3707555073563016  0.7765669912185948  1.0000
  C   C89       1.0  0.04956397129760667  0.01808007238830388  0.1208745446516687  1.0000
  C   C90       1.0  0.9504360282992674  0.9819199273319847  0.8791254550846243  1.0000
  O   O1        1.0  0.6729749032662807  0.2558530132981538  0.6305797692425296  1.0000
  O   O2        1.0  0.3270250964171204  0.7441469864510614  0.36942023101507315  1.0000
  O   O3        1.0  0.8783943848359261  0.48083552593317375  0.353399135491415  1.0000
  O   O4        1.0  0.121605614760948  0.5191644737871149  0.6466008642448782  1.0000
  O   O5        1.0  0.892054768216387  0.801003621168528  0.9784367984626606  1.0000
  O   O6        1.0  0.1079452325050495  0.19899637858475575  0.02156320179803114  1.0000
  O   O7        1.0  0.24151285850841706  0.03990983922734483  0.9808359812446323  1.0000
  O   O8        1.0  0.7584871421264922  0.9600901604970122  0.019164018494749704  1.0000
  Cl  Cl1       1.0  0.5749405564673492  0.3626040880146933  0.3862142139196952  1.0000
  Cl  Cl2       1.0  0.4250594432160519  0.6373959117345219  0.6137857863379075  1.0000
  Cl  Cl3       1.0  0.34365571720989324  0.4105663477729219  0.47294133250218207  1.0000
  Cl  Cl4       1.0  0.6563442823869808  0.5894336519473669  0.527058667234111  1.0000
  Cl  Cl5       1.0  0.9854916602294712  0.04988786739966333  0.38533151506362256  1.0000
  Cl  Cl6       1.0  0.014508339619520555  0.950112133079536  0.6146684846738127  1.0000
  Cl  Cl7       1.0  0.21724062851921452  0.9999500242647902  0.30146365706319744  1.0000
  Cl  Cl8       1.0  0.7827593710776595  4.9975455498479364e-05  0.6985363426730956  1.0000
  Cl  Cl9       1.0  0.5901815285288191  0.1021508288424776  0.44297657167775056  1.0000
  Cl  Cl10      1.0  0.40981847140669986  0.8978491716656483  0.5570234285809945  1.0000
  Cl  Cl11      1.0  0.6785042650000149  0.9005020697601973  0.4490081320316198  1.0000
  Cl  Cl12      1.0  0.3214957356348945  0.09949792996415972  0.5509918677077622  1.0000
  Cl  Cl13      1.0  0.599863907235481  0.8552135222302014  0.16858750229467265  1.0000
  Cl  Cl14      1.0  0.4001360923613931  0.1447864774900873  0.8314124974416204  1.0000
  Cl  Cl15      1.0  0.47924773297796086  0.045805784597166034  0.16234011506683715  1.0000
  Cl  Cl16      1.0  0.5207522666189132  0.9541942151231226  0.8376598846694558  1.0000
  Cl  Cl17      1.0  0.8208427782430264  0.22006551738089394  0.2966105947038006  1.0000
  Cl  Cl18      1.0  0.17915722239188278  0.7799344823434631  0.7033894050355814  1.0000
  Cl  Cl19      1.0  0.9464511905228835  0.37981366861372245  0.19321623656178702  1.0000
  Cl  Cl20      1.0  0.05354880916051752  0.6201863311354928  0.8067837636958157  1.0000
  Cl  Cl21      1.0  0.41983545484140217  0.4272098715236168  0.11367705388191449  1.0000
  Cl  Cl22      1.0  0.580164544755472  0.5727901281966719  0.8863229458543787  1.0000
  Cl  Cl23      1.0  0.2842500295591895  0.2528717692682979  0.20574554373793807  1.0000
  Cl  Cl24      1.0  0.7157499703763294  0.747128231239828  0.7942544565208068  1.0000
  Cl  Cl25      1.0  0.4701224778149522  0.2257356650883395  0.003334451193378719  1.0000
  Cl  Cl26      1.0  0.5298775221205668  0.7742643354197865  0.9966655490653663  1.0000
  Cl  Cl27      1.0  0.7776547890119371  0.17551660592673737  0.02564260544905954  1.0000
  Cl  Cl28      1.0  0.2223452116229723  0.8244833937976197  0.9743573942903224  1.0000
  Cl  Cl29      1.0  0.29945213593010583  0.5185552191426682  0.27312112632594365  1.0000
  Cl  Cl30      1.0  0.7005478649569213  0.4814447813405995  0.7268788734145806  1.0000
  Cl  Cl31      1.0  0.19043627896573506  0.6400236834504742  0.16496401387682436  1.0000
  Cl  Cl32      1.0  0.809563720631139  0.35997631626981436  0.8350359858594688  1.0000
  Cl  Cl33      1.0  0.0656437875749641  0.8937586952066596  0.14105142864544704  1.0000
  Cl  Cl34      1.0  0.9343562123605548  0.10624130530146628  0.8589485716132981  1.0000
  Cl  Cl35      1.0  0.948952625668502  0.0688071366752322  0.17971260866564243  1.0000
  Cl  Cl36      1.0  0.05104737426701696  0.9311928638328936  0.8202873915931025  1.0000
