data_image0
_chemical_formula_structural       H52C40N12O12
_chemical_formula_sum              "H52 C40 N12 O12"
_cell_length_a       16.43928963617554
_cell_length_b       7.014743690848042
_cell_length_c       9.608685564021174
_cell_angle_alpha    90.0
_cell_angle_beta     90.0
_cell_angle_gamma    90.0

_space_group_name_H-M_alt    "P 1"
_space_group_IT_number       1

loop_
  _space_group_symop_operation_xyz
  'x, y, z'

loop_
  _atom_site_type_symbol
  _atom_site_label
  _atom_site_symmetry_multiplicity
  _atom_site_fract_x
  _atom_site_fract_y
  _atom_site_fract_z
  _atom_site_occupancy
  H   H1        1.0  0.8423901960779424  0.41330029831061493  0.10109715356253897  1.0000
  H   H2        1.0  0.6576098042710197  0.5866997015684908  0.6010971533532922  1.0000
  H   H3        1.0  0.34239019596162173  0.08669970234172233  0.3989028472689392  1.0000
  H   H4        1.0  0.157609804154699  0.9133002975373834  0.8989028470596924  1.0000
  H   H5        1.0  0.157609804154699  0.5866997015684908  0.8989028470596924  1.0000
  H   H6        1.0  0.34239019596162173  0.41330029831061493  0.3989028472689392  1.0000
  H   H7        1.0  0.6576098042710197  0.9133002975373834  0.6010971533532922  1.0000
  H   H8        1.0  0.8423901960779424  0.08669970234172233  0.10109715356253897  1.0000
  H   H9        1.0  0.9318110483491471  0.5407429148051206  0.05031988056831105  1.0000
  H   H10       1.0  0.5681889513915162  0.45925708507398516  0.5503198803590642  1.0000
  H   H11       1.0  0.4318110482328264  0.9592570857263224  0.44968011922244205  1.0000
  H   H12       1.0  0.06818895188349428  0.040742914152783284  0.9496801190131952  1.0000
  H   H13       1.0  0.06818895188349428  0.45925708507398516  0.9496801190131952  1.0000
  H   H14       1.0  0.4318110482328264  0.5407429148051206  0.44968011922244205  1.0000
  H   H15       1.0  0.5681889513915162  0.040742914152783284  0.5503198803590642  1.0000
  H   H16       1.0  0.9318110483491471  0.9592570857263224  0.05031988056831105  1.0000
  H   H17       1.0  0.6488181512739244  0.2499999996133842  0.41898641735916925  1.0000
  H   H18       1.0  0.8511818490750376  0.7500000002657214  0.9189864171499222  1.0000
  H   H19       1.0  0.14881815115760372  0.2499999996133842  0.08101358243158394  1.0000
  H   H20       1.0  0.35118184895871696  0.7500000002657214  0.5810135822223371  1.0000
  H   H21       1.0  0.752246962228043  0.2499999996133842  0.8837504197032215  1.0000
  H   H22       1.0  0.7477530375126203  0.7500000002657214  0.3837504199124685  1.0000
  H   H23       1.0  0.25224696272002106  0.2499999996133842  0.6162495796690378  1.0000
  H   H24       1.0  0.2477530373962996  0.7500000002657214  0.11624957987828465  1.0000
  H   H25       1.0  0.6080877027680137  0.2499999996133842  0.8141455652677407  1.0000
  H   H26       1.0  0.8919122969726496  0.7500000002657214  0.31414556547698763  1.0000
  H   H27       1.0  0.10808770265169299  0.2499999996133842  0.6858544351452437  1.0000
  H   H28       1.0  0.39191229746462775  0.7500000002657214  0.18585443535449053  1.0000
  H   H29       1.0  0.49960744118325107  0.2499999996133842  0.003934488203210465  1.0000
  H   H30       1.0  0.00039255893306964845  0.7500000002657214  0.5039344879939636  1.0000
  H   H31       1.0  0.9996074412995718  0.2499999996133842  0.4960655115875427  1.0000
  H   H32       1.0  0.5003925584410915  0.7500000002657214  0.9960655113782959  1.0000
  H   H33       1.0  0.5462113490743851  0.2499999996133842  0.2522139905456333  1.0000
  H   H34       1.0  0.9537886506662782  0.7500000002657214  0.7522139913771115  1.0000
  H   H35       1.0  0.04621134895806443  0.2499999996133842  0.24778600924511984  1.0000
  H   H36       1.0  0.45378865054995743  0.7500000002657214  0.747786009035873  1.0000
  H   H37       1.0  0.8286394680962077  0.2499999996133842  0.32483170868730094  1.0000
  H   H38       1.0  0.6713605322527544  0.7500000002657214  0.8248317084780541  1.0000
  H   H39       1.0  0.32863946797988697  0.2499999996133842  0.17516829214417728  1.0000
  H   H40       1.0  0.17136053213643368  0.7500000002657214  0.6751682919349304  1.0000
  H   H41       1.0  0.9560661651348845  0.2499999996133842  0.7254272484573769  1.0000
  H   H42       1.0  0.5439338346057788  0.7500000002657214  0.22542724866662384  1.0000
  H   H43       1.0  0.4560661656268626  0.2499999996133842  0.7745727519556075  1.0000
  H   H44       1.0  0.04393383448945809  0.7500000002657214  0.2745727511241293  1.0000
  H   H45       1.0  0.8652398889973614  0.12231380900194697  0.7699504818538255  1.0000
  H   H46       1.0  0.6347601107433017  0.8776861908771587  0.2699504820630723  1.0000
  H   H47       1.0  0.36523988948933955  0.3776861902248214  0.730049518559159  1.0000
  H   H48       1.0  0.13476011062698112  0.6223138096542842  0.23004951772768084  1.0000
  H   H49       1.0  0.13476011062698112  0.8776861908771587  0.23004951772768084  1.0000
  H   H50       1.0  0.36523988948933955  0.12231380900194697  0.730049518559159  1.0000
  H   H51       1.0  0.6347601107433017  0.6223138096542842  0.2699504820630723  1.0000
  H   H52       1.0  0.8652398889973614  0.3776861902248214  0.7699504818538255  1.0000
  C   C1        1.0  0.941832113957571  0.2499999996133842  0.04998909130698883  1.0000
  C   C2        1.0  0.5581678863913909  0.7500000002657214  0.549989091097742  1.0000
  C   C3        1.0  0.44183211384125043  0.2499999996133842  0.4500109084837643  1.0000
  C   C4        1.0  0.05816788627507026  0.7500000002657214  0.9500109082745174  1.0000
  C   C5        1.0  0.6731921217354131  0.2499999996133842  0.19775887527375566  1.0000
  C   C6        1.0  0.8268078780052501  0.7500000002657214  0.6977588750645088  1.0000
  C   C7        1.0  0.17319212222739122  0.2499999996133842  0.3022411245169975  1.0000
  C   C8        1.0  0.3268078778889295  0.7500000002657214  0.8022411243077506  1.0000
  C   C9        1.0  0.6983340846271963  0.2499999996133842  0.34321044934057465  1.0000
  C   C10       1.0  0.8016659151134671  0.7500000002657214  0.8432104501720529  1.0000
  C   C11       1.0  0.19833408451087553  0.2499999996133842  0.15678955045017853  1.0000
  C   C12       1.0  0.3016659149971464  0.7500000002657214  0.6567895502409317  1.0000
  C   C13       1.0  0.8897056170732839  0.2499999996133842  0.7195169208041705  1.0000
  C   C14       1.0  0.6102943826673795  0.7500000002657214  0.21951692101341735  1.0000
  C   C15       1.0  0.3897056169569632  0.2499999996133842  0.7804830785680889  1.0000
  C   C16       1.0  0.11029438255105871  0.7500000002657214  0.28048307877733575  1.0000
  C   C17       1.0  0.7053667486022617  0.2499999996133842  0.96398249878037  1.0000
  C   C18       1.0  0.7946332511384016  0.7500000002657214  0.4639824979488917  1.0000
  C   C19       1.0  0.20536674848594105  0.2499999996133842  0.5360175016326145  1.0000
  C   C20       1.0  0.2946332510220808  0.7500000002657214  0.03601750184186143  1.0000
  C   C21       1.0  0.6234209741914523  0.2499999996133842  0.924447868630497  1.0000
  C   C22       1.0  0.8765790261575098  0.7500000002657214  0.4244478688397439  1.0000
  C   C23       1.0  0.12342097407513154  0.2499999996133842  0.5755521307417624  1.0000
  C   C24       1.0  0.37657902604118915  0.7500000002657214  0.07555213095100925  1.0000
  C   C25       1.0  0.5643395435764275  0.2499999996133842  0.028387756908328666  1.0000
  C   C26       1.0  0.9356604561642358  0.7500000002657214  0.5283877566990818  1.0000
  C   C27       1.0  0.06433954346010683  0.2499999996133842  0.4716122428824244  1.0000
  C   C28       1.0  0.43566045604791503  0.7500000002657214  0.9716122426731777  1.0000
  C   C29       1.0  0.5896709015131856  0.2499999996133842  0.16673903202734353  1.0000
  C   C30       1.0  0.9103290982274778  0.7500000002657214  0.6667390318180967  1.0000
  C   C31       1.0  0.0896709013968649  0.2499999996133842  0.33326096776340963  1.0000
  C   C32       1.0  0.410329098111157  0.7500000002657214  0.8332609685948877  1.0000
  C   C33       1.0  0.7752480084026857  0.2499999996133842  0.39209386392110457  1.0000
  C   C34       1.0  0.7247519913379776  0.7500000002657214  0.8920938647525827  1.0000
  C   C35       1.0  0.27524800828636503  0.2499999996133842  0.1079061358696486  1.0000
  C   C36       1.0  0.22475199182995567  0.7500000002657214  0.6079061356604017  1.0000
  C   C37       1.0  0.7888828609395466  0.2499999996133842  0.5432374090317872  1.0000
  C   C38       1.0  0.7111171388011166  0.7500000002657214  0.04323740820030902  1.0000
  C   C39       1.0  0.28888286082322595  0.2499999996133842  0.9567625913811972  1.0000
  C   C40       1.0  0.21111713868479592  0.7500000002657214  0.45676259159044413  1.0000
  N   N1        1.0  0.9028535860417461  0.4156004080097121  0.07740469859737424  1.0000
  N   N2        1.0  0.5971464136989171  0.5843995918693936  0.5774046983881275  1.0000
  N   N3        1.0  0.4028535859254255  0.08439959264262521  0.4225953011933789  1.0000
  N   N4        1.0  0.09714641358259642  0.9156004072364805  0.9225953009841321  1.0000
  N   N5        1.0  0.09714641358259642  0.5843995918693936  0.9225953009841321  1.0000
  N   N6        1.0  0.4028535859254255  0.4156004080097121  0.4225953011933789  1.0000
  N   N7        1.0  0.5971464136989171  0.9156004072364805  0.5774046983881275  1.0000
  N   N8        1.0  0.9028535860417461  0.08439959264262521  0.07740469859737424  1.0000
  N   N9        1.0  0.7305194686498535  0.2499999996133842  0.09644800985788171  1.0000
  N   N10       1.0  0.7694805310908097  0.7500000002657214  0.5964480096486349  1.0000
  N   N11       1.0  0.23051946853353283  0.2499999996133842  0.4035519909735965  1.0000
  N   N12       1.0  0.26948053158278784  0.7500000002657214  0.9035519907643497  1.0000
  O   O1        1.0  0.014519988106708187  0.2499999996133842  0.003600797400380387  1.0000
  O   O2        1.0  0.4854800120096125  0.7500000002657214  0.5036007971911336  1.0000
  O   O3        1.0  0.5145199882230288  0.2499999996133842  0.4963992023903728  1.0000
  O   O4        1.0  0.9854800115176343  0.7500000002657214  0.9963992021811259  1.0000
  O   O5        1.0  0.8696791641494585  0.2499999996133842  0.5733328292714502  1.0000
  O   O6        1.0  0.6303208361995035  0.7500000002657214  0.07333282948069703  1.0000
  O   O7        1.0  0.36967916403313783  0.2499999996133842  0.9266671701008092  1.0000
  O   O8        1.0  0.1303208360831829  0.7500000002657214  0.42666717031005613  1.0000
  O   O9        1.0  0.7358943639133058  0.2499999996133842  0.6336129254553452  1.0000
  O   O10       1.0  0.7641056358273575  0.7500000002657214  0.13361292566459204  1.0000
  O   O11       1.0  0.2358943637969851  0.2499999996133842  0.8663870749576392  1.0000
  O   O12       1.0  0.2641056363193356  0.7500000002657214  0.3663870751668862  1.0000
