data_image0
_chemical_formula_structural       H64C62O2F12P2S6
_chemical_formula_sum              "H64 C62 O2 F12 P2 S6"
_cell_length_a       10.71812345589282
_cell_length_b       11.811608298807398
_cell_length_c       12.188993848631842
_cell_angle_alpha    71.62250405073443
_cell_angle_beta     77.37334428148188
_cell_angle_gamma    72.98921762305011

_space_group_name_H-M_alt    "P 1"
_space_group_IT_number       1

loop_
  _space_group_symop_operation_xyz
  'x, y, z'

loop_
  _atom_site_type_symbol
  _atom_site_label
  _atom_site_symmetry_multiplicity
  _atom_site_fract_x
  _atom_site_fract_y
  _atom_site_fract_z
  _atom_site_occupancy
  H   H1        1.0  0.2256039816056371  0.14485687504943484  0.7767865919321734  1.0000
  H   H2        1.0  0.7743960181689219  0.8551431249601266  0.22321340795171704  1.0000
  H   H3        1.0  0.22243849549695244  0.24490925256731857  0.17838356806216377  1.0000
  H   H4        1.0  0.7775615042776065  0.7550907474422429  0.8216164318217266  1.0000
  H   H5        1.0  0.4539081161157809  0.7340907119727709  0.917316632186863  1.0000
  H   H6        1.0  0.546091883658778  0.2659092880367907  0.08268336769702733  1.0000
  H   H7        1.0  0.35276902957720596  0.048778935400794  0.9042334363630657  1.0000
  H   H8        1.0  0.6472309701973529  0.9512210646087675  0.09576656352082458  1.0000
  H   H9        1.0  0.36622717981842046  0.8963115866259446  0.9965906293921829  1.0000
  H   H10       1.0  0.6337728199561387  0.10368841338361688  0.003409370491707265  1.0000
  H   H11       1.0  0.21430909545892438  0.9854464333048941  0.9456240822965744  1.0000
  H   H12       1.0  0.785690904030886  0.014553567591055323  0.05437591758366228  1.0000
  H   H13       1.0  0.450029105602245  0.8351672224316206  0.31935559270362784  1.0000
  H   H14       1.0  0.549970894172314  0.16483277757794093  0.6806444071802624  1.0000
  H   H15       1.0  0.6159848194710015  0.6265015822778072  0.5543126750428349  1.0000
  H   H16       1.0  0.3840151803035575  0.37349841773175424  0.44568732484105544  1.0000
  H   H17       1.0  0.5665940798240046  0.6432604981573058  0.4177009654208689  1.0000
  H   H18       1.0  0.43340591995055444  0.3567395018522557  0.5822990344630214  1.0000
  H   H19       1.0  0.46901398801190963  0.5904089459038728  0.553179646578289  1.0000
  H   H20       1.0  0.5309860117626496  0.40959105410568863  0.4468203533056012  1.0000
  H   H21       1.0  0.29425725163424044  0.9383718037203823  0.19677983104861388  1.0000
  H   H22       1.0  0.7057427490731549  0.06162819628872552  0.8032201688365153  1.0000
  H   H23       1.0  0.44845825898231884  0.9744713357919133  0.15752704986525437  1.0000
  H   H24       1.0  0.55154174079224  0.02552866421764829  0.8424729500186359  1.0000
  H   H25       1.0  0.30993143287196956  0.08448331626030488  0.09942245141195484  1.0000
  H   H26       1.0  0.6900685667628762  0.9155166835053534  0.9005775493449338  1.0000
  H   H27       1.0  0.12090573110711776  0.33929045523352663  0.6796762917139625  1.0000
  H   H28       1.0  0.8790942686674411  0.6607095447760349  0.3203237081699277  1.0000
  H   H29       1.0  0.03847411824501225  0.3382183066298519  0.56794907331771  1.0000
  H   H30       1.0  0.9615258815295469  0.6617816933797096  0.43205092656618027  1.0000
  H   H31       1.0  0.18267372525136172  0.3932310206127355  0.5298221326264789  1.0000
  H   H32       1.0  0.8173262754560339  0.6067689793963722  0.47017786725865013  1.0000
  H   H33       1.0  0.886476249039381  0.17745598878627106  0.7104224068854972  1.0000
  H   H34       1.0  0.11352375166801439  0.8225440112228367  0.289577592999632  1.0000
  H   H35       1.0  0.8376312920359649  0.3686627091806231  0.6182838613056225  1.0000
  H   H36       1.0  0.16236870773859405  0.6313372908289385  0.3817161385782678  1.0000
  H   H37       1.0  0.6961874400461775  0.3132402693702993  0.6393509669575831  1.0000
  H   H38       1.0  0.3038125597283815  0.6867597306392621  0.3606490329263071  1.0000
  H   H39       1.0  0.7174194407179295  0.4438535526426365  0.5220886231439975  1.0000
  H   H40       1.0  0.2825805590566294  0.556146447366925  0.47791137673989276  1.0000
  H   H41       1.0  0.7725840372118034  0.4138885966002364  0.3399709326464137  1.0000
  H   H42       1.0  0.22741596242304243  0.5861114031654221  0.6600290681104749  1.0000
  H   H43       1.0  0.9262852847151433  0.9040574871571799  0.8957479219309852  1.0000
  H   H44       1.0  0.07371471505941588  0.09594251285238153  0.10425207795290514  1.0000
  H   H45       1.0  0.9769539262855682  0.04189191797448354  0.8727285813266062  1.0000
  H   H46       1.0  0.023046073488990678  0.9581080820350779  0.12727141855728402  1.0000
  H   H47       1.0  0.09494242106855613  0.9019250751256903  0.8627764271828879  1.0000
  H   H48       1.0  0.9050575787060028  0.0980749248838711  0.13722357270100238  1.0000
  H   H49       1.0  0.0904027623481929  0.46409726165922466  0.0802755757650524  1.0000
  H   H50       1.0  0.909597237426366  0.5359027383503369  0.9197244241188378  1.0000
  H   H51       1.0  0.03377868263158589  0.4852751013441917  0.2223497403941011  1.0000
  H   H52       1.0  0.9662213171429729  0.51472489866537  0.7776502594897893  1.0000
  H   H53       1.0  0.2504425273134579  0.7227869264276702  0.1350296518378516  1.0000
  H   H54       1.0  0.7495574724611012  0.27721307358189134  0.8649703480460387  1.0000
  H   H55       1.0  0.23619045966969646  0.7071019303137718  0.9973547593907091  1.0000
  H   H56       1.0  0.7638095401048624  0.29289806969578985  0.00264524049318107  1.0000
  H   H57       1.0  0.011383334151396514  0.6749667358395958  0.9871650763998476  1.0000
  H   H58       1.0  0.9886166654834493  0.3250332639260625  0.012834924357041028  1.0000
  H   H59       1.0  0.8982670652618161  0.6733306225554943  0.1188550607684292  1.0000
  H   H60       1.0  0.10173293451274279  0.3266693774540673  0.8811449391154611  1.0000
  H   H61       1.0  0.23971414565579455  0.5134454487788489  0.23034710211147175  1.0000
  H   H62       1.0  0.7602858550516008  0.486554551230259  0.7696528977736574  1.0000
  H   H63       1.0  0.29883560402323844  0.4944194851533459  0.08817912205500186  1.0000
  H   H64       1.0  0.7011643966841571  0.5055805148557618  0.9118208778301272  1.0000
  C   C1        1.0  0.3565453196815831  0.9480380869090919  0.6027574079136946  1.0000
  C   C2        1.0  0.6434546800929759  0.05196191310046938  0.39724259197019574  1.0000
  C   C3        1.0  0.3600814387767489  0.9122855665698243  0.8174844646916077  1.0000
  C   C4        1.0  0.6399185609978102  0.0877144334397373  0.18251553519228264  1.0000
  C   C5        1.0  0.3238945217827761  0.990672433639931  0.7058114343449068  1.0000
  C   C6        1.0  0.6761054779917829  0.009327566369630369  0.2941885655389836  1.0000
  C   C7        1.0  0.2528033035011563  0.11293128258876796  0.6984766463960266  1.0000
  C   C8        1.0  0.7471966962734026  0.8870687174207935  0.3015233534878637  1.0000
  C   C9        1.0  0.31338785959695475  0.06704590755622955  0.27912903313292653  1.0000
  C   C10       1.0  0.6866121401776043  0.932954092453332  0.7208709667509636  1.0000
  C   C11       1.0  0.24879227065068849  0.18750571512422923  0.26348996708495415  1.0000
  C   C12       1.0  0.7512077291238705  0.8124942848853322  0.7365100327989361  1.0000
  C   C13       1.0  0.45899897209413665  0.7841370562139374  0.5017600909568255  1.0000
  C   C14       1.0  0.5410010276804222  0.21586294379562423  0.49823990892706477  1.0000
  C   C15       1.0  0.4264279031239834  0.7917921944438275  0.8325087289847504  1.0000
  C   C16       1.0  0.573572097583412  0.20820780556528037  0.16749127090037863  1.0000
  C   C17       1.0  0.31965951579588964  0.03181261405784692  0.49367417549022563  1.0000
  C   C18       1.0  0.6803404839786694  0.9681873859517145  0.5063258243936647  1.0000
  C   C19       1.0  0.42454601633595  0.8245993641088617  0.6039314830711714  1.0000
  C   C20       1.0  0.5754539840866972  0.17540063678663428  0.39606851681030397  1.0000
  C   C21       1.0  0.32202923431883645  0.9630803922358016  0.921777112097303  1.0000
  C   C22       1.0  0.6779707654557224  0.03691960777375994  0.0782228877865874  1.0000
  C   C23       1.0  0.4227230470169703  0.8672625311716692  0.3977732708649083  1.0000
  C   C24       1.0  0.5772769527575887  0.1327374688378923  0.602226729018982  1.0000
  C   C25       1.0  0.2509581399970906  0.15503245983573577  0.4926858895490711  1.0000
  C   C26       1.0  0.7490418597774683  0.8449675401738258  0.5073141103348192  1.0000
  C   C27       1.0  0.3521036242683796  0.9890563937158139  0.39052487467240055  1.0000
  C   C28       1.0  0.6478963755061793  0.010943606293747741  0.6094751252114897  1.0000
  C   C29       1.0  0.531654476655005  0.6543879684865989  0.5058475706548401  1.0000
  C   C30       1.0  0.4683455231195539  0.34561203152296266  0.4941524292290502  1.0000
  C   C31       1.0  0.21511163472163325  0.19565431236897224  0.595316470442924  1.0000
  C   C32       1.0  0.7848883650529257  0.8043456876405891  0.4046835294409663  1.0000
  C   C33       1.0  0.3427595210509493  0.013908179461862185  0.17732225681074698  1.0000
  C   C34       1.0  0.6572404796564463  0.9860918205472456  0.8226777430743821  1.0000
  C   C35       1.0  0.1354235598387807  0.3234275521793748  0.5935598994124137  1.0000
  C   C36       1.0  0.8645764399357783  0.6765724478301868  0.40644010047147655  1.0000
  C   C37       1.0  0.03843978206279409  0.9055508046932124  0.6503828042088005  1.0000
  C   C38       1.0  0.9615602175720517  0.09444919507244584  0.34961719654808815  1.0000
  C   C39       1.0  0.8379232128391015  0.2738246655265104  0.4913685288206109  1.0000
  C   C40       1.0  0.16207678679574417  0.7261753342391479  0.5086314719362778  1.0000
  C   C41       1.0  0.9248988913764153  0.11133222985347316  0.6587712437788773  1.0000
  C   C42       1.0  0.07510110839814368  0.8886677701560883  0.34122875610501296  1.0000
  C   C43       1.0  0.7690609854753229  0.354005923574058  0.571618417405625  1.0000
  C   C44       1.0  0.23093901429923605  0.6459940764355036  0.4283815824782653  1.0000
  C   C45       1.0  0.9876172847100878  0.9920433574564484  0.7154848582609759  1.0000
  C   C46       1.0  0.012382715064471072  0.007956642553113008  0.28451514162291447  1.0000
  C   C47       1.0  0.8275567545883175  0.320202458213653  0.3760053707692213  1.0000
  C   C48       1.0  0.172443246119078  0.6797975417954548  0.6239946291159078  1.0000
  C   C49       1.0  0.9968750889979622  0.9587768482133205  0.8432170195274341  1.0000
  C   C50       1.0  0.0031249107765968483  0.04122315179624088  0.15678298035645608  1.0000
  C   C51       1.0  0.032440991149721043  0.9377595015642068  0.5280204703968822  1.0000
  C   C52       1.0  0.9675590084851249  0.06224049820145139  0.4719795303600065  1.0000
  C   C53       1.0  0.9108669574906347  0.1487400887762009  0.5406252555008545  1.0000
  C   C54       1.0  0.08913304321676083  0.8512599112329069  0.45937474438427467  1.0000
  C   C55       1.0  0.08218149126269345  0.5247270387607434  0.13496273496064676  1.0000
  C   C56       1.0  0.9178185085118654  0.4752729612488182  0.8650372649232435  1.0000
  C   C57       1.0  0.20051525295064285  0.6833398372663537  0.09199443909617068  1.0000
  C   C58       1.0  0.7994847468239163  0.3166601627432079  0.9080055607877195  1.0000
  C   C59       1.0  0.002724227184284541  0.6553960909691754  0.08302693947729901  1.0000
  C   C60       1.0  0.9972757725902744  0.3446039090403862  0.9169730604065913  1.0000
  C   C61       1.0  0.21757504233803526  0.5438344705189027  0.14037331540181033  1.0000
  C   C62       1.0  0.7824249574365237  0.4561655294906588  0.85962668448208  1.0000
  O   O1        1.0  0.06115839229852129  0.736368469783082  0.11103857490254988  1.0000
  O   O2        1.0  0.9388416073363245  0.2636315299825762  0.8889614258543387  1.0000
  F   F1        1.0  0.5359140358718995  0.5768517378724264  0.0741682625121592  1.0000
  F   F2        1.0  0.4640859639026595  0.42314826213713497  0.9258317373717311  1.0000
  F   F3        1.0  0.6783618773073928  0.6962112873609947  0.20800212992151798  1.0000
  F   F4        1.0  0.3216381224671662  0.3037887126485667  0.7919978699623723  1.0000
  F   F5        1.0  0.5442540006939417  0.5597832069324615  0.26783439008429094  1.0000
  F   F6        1.0  0.45574599908061736  0.44021679307709993  0.7321656097995994  1.0000
  F   F7        1.0  0.7382309037504055  0.5213604806759898  0.1410252915746539  1.0000
  F   F8        1.0  0.2617690960241536  0.47863951933357174  0.8589747083092364  1.0000
  F   F9        1.0  0.671131103671413  0.7134913570618151  0.014367549374412905  1.0000
  F   F10       1.0  0.328868896103146  0.2865086429477465  0.9856324505094773  1.0000
  F   F11       1.0  0.47726913325974374  0.7513029501418306  0.1409269999838627  1.0000
  F   F12       1.0  0.5227308665148152  0.24869704986773086  0.8590729999000275  1.0000
  P   P1        1.0  0.6077336760295987  0.6355929014038364  0.14080310554222664  1.0000
  P   P2        1.0  0.3922663246777969  0.3644070986052713  0.8591968943429026  1.0000
  S   S1        1.0  0.4704249053613035  0.7128635306405258  0.7294651278527255  1.0000
  S   S2        1.0  0.5295750944132555  0.28713646936903553  0.27053487203116494  1.0000
  S   S3        1.0  0.20371749188845342  0.2655383539638924  0.3674880314952707  1.0000
  S   S4        1.0  0.7962825078861054  0.7344616460456691  0.6325119683886196  1.0000
  S   S5        1.0  0.8931315367456754  0.243462861087743  0.2699960459950119  1.0000
  S   S6        1.0  0.10686846302888377  0.7565371389218184  0.7300039538888784  1.0000
