data_image0
_chemical_formula_structural       H26C14N5O7Cl
_chemical_formula_sum              "H26 C14 N5 O7 Cl1"
_cell_length_a       7.127107181544745
_cell_length_b       8.244408730187432
_cell_length_c       8.938541413610453
_cell_angle_alpha    67.7933882863106
_cell_angle_beta     78.93098066645709
_cell_angle_gamma    83.72394644295203

_space_group_name_H-M_alt    "P 1"
_space_group_IT_number       1

loop_
  _space_group_symop_operation_xyz
  'x, y, z'

loop_
  _atom_site_type_symbol
  _atom_site_label
  _atom_site_symmetry_multiplicity
  _atom_site_fract_x
  _atom_site_fract_y
  _atom_site_fract_z
  _atom_site_occupancy
  H   H1        1.0  0.5018560563761149  0.05637015956078406  0.30657397460498786  1.0000
  H   H2        1.0  0.5048223140065076  0.08212118417867456  0.7274524805509799  1.0000
  H   H3        1.0  0.008782291406509607  0.8163680589008534  0.47000457691332886  1.0000
  H   H4        1.0  0.5800229861918267  0.5322729667745443  0.7545894522258603  1.0000
  H   H5        1.0  0.09213531639881226  0.1248757831526142  0.38510978040384336  1.0000
  H   H6        1.0  0.09630543029565426  0.335321611767457  0.22895950073239804  1.0000
  H   H7        1.0  0.28612147160655577  0.2609918251274832  0.3481605518610362  1.0000
  H   H8        1.0  0.06847690670469643  0.23024936424280976  0.03140715625105057  1.0000
  H   H9        1.0  0.2330573163775414  0.21077024122268556  0.6363550954649958  1.0000
  H   H10       1.0  0.039898913934990406  0.26106116268897134  0.7739096674522857  1.0000
  H   H11       1.0  0.09400822954892694  0.040926843994082245  0.7903768273716675  1.0000
  H   H12       1.0  0.6682593363671563  0.2115028732548665  0.9150385692471414  1.0000
  H   H13       1.0  0.747815637523166  0.02111129492528363  0.868604306110664  1.0000
  H   H14       1.0  0.7109412066527665  0.9285692630880216  0.16137022385895036  1.0000
  H   H15       1.0  0.5151745582804017  0.8488171497652354  0.11904933999565935  1.0000
  H   H16       1.0  0.07694021682776933  0.5726919471970184  0.277631467527011  1.0000
  H   H17       1.0  0.25342648354310776  0.7166271721382586  0.14613802872957476  1.0000
  H   H18       1.0  0.03630952440383621  0.801639747318406  0.23125853559005471  1.0000
  H   H19       1.0  0.47187587772217787  0.540837529653527  0.31555497300631974  1.0000
  H   H20       1.0  0.8216955456421894  0.49781626579034777  0.5697324439843402  1.0000
  H   H21       1.0  0.7773599814534893  0.5060235716323862  0.37603898292243987  1.0000
  H   H22       1.0  0.7222824923714164  0.3175488059003189  0.5539655621427365  1.0000
  H   H23       1.0  0.18593970522055164  0.4980049293702063  0.7790715655840497  1.0000
  H   H24       1.0  0.29488311345960944  0.6158138137606392  0.8659162425755729  1.0000
  H   H25       1.0  0.3069722685928193  0.8745846907888435  0.5932186859588667  1.0000
  H   H26       1.0  0.0737762402727083  0.8154233141957196  0.7052454965111143  1.0000
  C   C1        1.0  0.1866785969273498  0.22225281380182882  0.2891382624512124  1.0000
  C   C2        1.0  0.29453656200003003  0.14780599885034026  0.1664657492872141  1.0000
  C   C3        1.0  0.21397259236937288  0.17388380477457288  0.027013631071119114  1.0000
  C   C4        1.0  0.28969497636398206  0.1442847248532838  0.8825001219873588  1.0000
  C   C5        1.0  0.1575034227542785  0.1667163894982379  0.7630254205995746  1.0000
  C   C6        1.0  0.6267800328827352  0.08211883656308634  0.926507249076079  1.0000
  C   C7        1.0  0.5795699010819046  0.9683530797042889  0.1081565213204685  1.0000
  C   C8        1.0  0.14479458410259127  0.6943242573121872  0.2560802719160309  1.0000
  C   C9        1.0  0.2348802927905236  0.6757765535707236  0.40092984482075233  1.0000
  C   C10       1.0  0.41050220022791073  0.5808681546446015  0.4181956294737581  1.0000
  C   C11       1.0  0.5261809439967986  0.5379367407482587  0.5392003096702632  1.0000
  C   C12       1.0  0.7239119111599341  0.4616034538114719  0.5075982850709593  1.0000
  C   C13       1.0  0.2847553305684033  0.6025672219203588  0.7504854915983337  1.0000
  C   C14       1.0  0.2007567748044486  0.7727274273651852  0.6368155279902895  1.0000
  N   N1        1.0  0.45633758366958665  0.05792749257174675  0.20369647035562227  1.0000
  N   N2        1.0  0.4711912004058021  0.1004902196626382  0.8373201377082736  1.0000
  N   N3        1.0  0.13880646763067025  0.7556298373049025  0.4985034508944929  1.0000
  N   N4        1.0  0.474883317763593  0.5540060956950097  0.6845919770560266  1.0000
  N   N5        1.0  0.7156518092462275  0.9976392124111102  0.5113730355359926  1.0000
  O   O1        1.0  0.5439129323686094  0.06155928707076346  0.5157987324045638  1.0000
  O   O2        1.0  0.7794613030653105  0.9206525435234  0.4119011269748094  1.0000
  O   O3        1.0  0.8189493498140881  0.011749187350772013  0.6049102197999143  1.0000
  O   O4        1.0  0.8848283719303102  0.6476269845964695  0.013415064527217505  1.0000
  O   O5        1.0  0.5584636728517292  0.6173890277261254  0.0007598947705962423  1.0000
  O   O6        1.0  0.7437877664478357  0.36786951294424297  0.14737173813300966  1.0000
  O   O7        1.0  0.8102725108603912  0.49244875437170343  0.8547118737043741  1.0000
  Cl  Cl1       1.0  0.7495361703647461  0.5315508182461989  0.0059404729227097225  1.0000
