data_image0
_chemical_formula_structural       H40C44N4Cl8I4
_chemical_formula_sum              "H40 C44 N4 Cl8 I4"
_cell_length_a       8.914767806821297
_cell_length_b       15.41547223956074
_cell_length_c       9.577951515082775
_cell_angle_alpha    90.0
_cell_angle_beta     107.39934272600873
_cell_angle_gamma    90.0

_space_group_name_H-M_alt    "P 1"
_space_group_IT_number       1

loop_
  _space_group_symop_operation_xyz
  'x, y, z'

loop_
  _atom_site_type_symbol
  _atom_site_label
  _atom_site_symmetry_multiplicity
  _atom_site_fract_x
  _atom_site_fract_y
  _atom_site_fract_z
  _atom_site_occupancy
  H   H1        1.0  0.561022306987606  0.6288241981405701  0.6598981421797869  1.0000
  H   H2        1.0  0.9389776930101675  0.1288241981263227  0.8401018581297158  1.0000
  H   H3        1.0  0.4389776936185296  0.3711758018879247  0.3401018587563337  1.0000
  H   H4        1.0  0.06102230612349438  0.8711758019021721  0.15989814171117558  1.0000
  H   H5        1.0  0.5914796561792744  0.6977066179262554  0.9014188757382341  1.0000
  H   H6        1.0  0.9085203438184991  0.19770661791200791  0.5985811245712687  1.0000
  H   H7        1.0  0.4085203440764752  0.3022933821022395  0.09858112410375944  1.0000
  H   H8        1.0  0.0914796567876365  0.8022933821164869  0.4014188763648519  1.0000
  H   H9        1.0  0.055000019200690885  0.6451718828617214  0.5601178641668985  1.0000
  H   H10       1.0  0.44499998148642333  0.14517188284747404  0.9398821365942399  1.0000
  H   H11       1.0  0.9449999810550586  0.35482811716677337  0.4398821356750949  1.0000
  H   H12       1.0  0.5550000191197123  0.8548281171810208  0.0601178643418808  1.0000
  H   H13       1.0  0.35393145060316367  0.7420680062361789  0.9709096897450153  1.0000
  H   H14       1.0  0.14606854861147675  0.24206800622193142  0.5290903099208936  1.0000
  H   H15       1.0  0.6460685485304982  0.257931993792316  0.029090310095875878  1.0000
  H   H16       1.0  0.8539314505221851  0.7579319938065634  0.4709096899199979  1.0000
  H   H17       1.0  0.08752961994128827  0.720482227686622  0.7971736359321934  1.0000
  H   H18       1.0  0.4124703792733522  0.22048222767237452  0.7028263637337157  1.0000
  H   H19       1.0  0.9124703791923736  0.27951777234187286  0.20282636390869793  1.0000
  H   H20       1.0  0.5875296209823974  0.7795177723561203  0.2971736361082778  1.0000
  H   H21       1.0  0.07493976454765114  0.39903022200085897  0.18002346461256888  1.0000
  H   H22       1.0  0.42506023596607445  0.8990302220151063  0.3199765347619153  1.0000
  H   H23       1.0  0.9250602357080984  0.6009697780276358  0.8199765352294245  1.0000
  H   H24       1.0  0.5749397642896752  0.10096977801338847  0.6800234650800782  1.0000
  H   H25       1.0  0.004409435655607124  0.3246035478016978  0.936384416966841  1.0000
  H   H26       1.0  0.49559056468112106  0.8246035478159452  0.5636155827001701  1.0000
  H   H27       1.0  0.9955905646001426  0.675396452226797  0.06361558287515244  1.0000
  H   H28       1.0  0.5044094355746285  0.17539645221254957  0.43638441714182336  1.0000
  H   H29       1.0  0.38328071820494686  0.565280539874548  0.06614520115039182  1.0000
  H   H30       1.0  0.11671928230877875  0.06528053986030047  0.43385479822409223  1.0000
  H   H31       1.0  0.6167192820508027  0.43471946015394697  0.9338547986916016  1.0000
  H   H32       1.0  0.8832807179469707  0.9347194601681944  0.5661452016179012  1.0000
  H   H33       1.0  0.1338462656542626  0.37589943142508087  0.7505493832499565  1.0000
  H   H34       1.0  0.3661537346824654  0.8758994314393282  0.7494506164170545  1.0000
  H   H35       1.0  0.8661537346014869  0.6241005686034139  0.24945061659203685  1.0000
  H   H36       1.0  0.633846265573284  0.12410056858916653  0.25054938342493893  1.0000
  H   H37       1.0  0.3259895777971176  0.4987781133469249  0.8167347366395349  1.0000
  H   H38       1.0  0.1740104225396105  0.9987781133611723  0.683265263027476  1.0000
  H   H39       1.0  0.674010422458632  0.50122188668157  0.18326526320245842  1.0000
  H   H40       1.0  0.8259895777161391  0.0012218866673225398  0.31673473681451736  1.0000
  C   C1        1.0  0.30660843281317757  0.6333095216470767  0.5977049127927457  1.0000
  C   C2        1.0  0.19339156640146282  0.1333095216328292  0.9022950868731633  1.0000
  C   C3        1.0  0.6933915663204843  0.3666904783814182  0.4022950870481456  1.0000
  C   C4        1.0  0.806608432732199  0.8666904783956656  0.09770491296772814  1.0000
  C   C5        1.0  0.45775467321068264  0.6475008507611196  0.6913599176820752  1.0000
  C   C6        1.0  0.042245327126045486  0.14750085074687216  0.8086400819849359  1.0000
  C   C7        1.0  0.5422453270450669  0.35249914926737524  0.3086400821599182  1.0000
  C   C8        1.0  0.9577546731297042  0.8524991492816227  0.19135991785705755  1.0000
  C   C9        1.0  0.47413429882561814  0.6866768098634408  0.8267973407082643  1.0000
  C   C10       1.0  0.02586570038902226  0.18667680984919344  0.6732026589576446  1.0000
  C   C11       1.0  0.5258657003080437  0.313323190165054  0.17320265913262708  1.0000
  C   C12       1.0  0.9741342987446396  0.8133231901793013  0.32679734088324663  1.0000
  C   C13       1.0  0.1721397463698676  0.6582709632442083  0.6337106561316667  1.0000
  C   C14       1.0  0.3278602531951589  0.15827096322996084  0.8662893446283695  1.0000
  C   C15       1.0  0.8278602531141803  0.34172903678428657  0.3662893448033518  1.0000
  C   C16       1.0  0.672139745938503  0.841729036798534  0.13371065521252187  1.0000
  C   C17       1.0  0.3411799344993827  0.7119427182927954  0.8650224976011547  1.0000
  C   C18       1.0  0.15882006583734548  0.21194271827854805  0.6349775020658565  1.0000
  C   C19       1.0  0.6588200657563669  0.28805728108700046  0.13497750224083874  1.0000
  C   C20       1.0  0.8411799344184041  0.788057281101248  0.365022497776137  1.0000
  C   C21       1.0  0.1907715964925917  0.6987056200820556  0.7682996910095559  1.0000
  C   C22       1.0  0.3092284027220487  0.19870562006780818  0.7317003086563533  1.0000
  C   C23       1.0  0.8092284026410702  0.30129437994643926  0.23170030883133555  1.0000
  C   C24       1.0  0.6907715975337008  0.8012943799606866  0.2682996911856402  1.0000
  C   C25       1.0  0.12810856957859917  0.41876516266776054  0.09619141699559301  1.0000
  C   C26       1.0  0.3718914301634248  0.9187651626820079  0.4038085834719163  1.0000
  C   C27       1.0  0.8718914306771505  0.5812348373607342  0.9038085828464004  1.0000
  C   C28       1.0  0.6281085700923248  0.08123483734648686  0.5961914163700771  1.0000
  C   C29       1.0  0.08938710097883737  0.3774682494038086  0.9606848671714511  1.0000
  C   C30       1.0  0.41061289970827686  0.877468249418056  0.5393151335896872  1.0000
  C   C31       1.0  0.9106128996272982  0.6225317506246862  0.03931513376466957  1.0000
  C   C32       1.0  0.5893871005474728  0.12253175061043887  0.4606848662523061  1.0000
  C   C33       1.0  0.3008056613419906  0.511480915892115  0.03285863176379186  1.0000
  C   C34       1.0  0.19919433840003337  0.011480915877867594  0.4671413687037174  1.0000
  C   C35       1.0  0.6991943377916713  0.48851908413637984  0.9671413680770995  1.0000
  C   C36       1.0  0.8008056622061022  0.9885190841506273  0.5328586322324032  1.0000
  C   C37       1.0  0.160882247620783  0.406186983615782  0.8579278088310295  1.0000
  C   C38       1.0  0.33911775306633124  0.9061869836300294  0.6420721919301089  1.0000
  C   C39       1.0  0.8391177526349666  0.5938130164127128  0.1420721910109639  1.0000
  C   C40       1.0  0.6608822475398044  0.09381301639846543  0.3579278090060118  1.0000
  C   C41       1.0  0.26851205275571055  0.4744042048372815  0.8944207603894461  1.0000
  C   C42       1.0  0.23148794680931592  0.9744042048515289  0.6055792403705901  1.0000
  C   C43       1.0  0.7314879467283374  0.5255957951912132  0.10557924054557244  1.0000
  C   C44       1.0  0.768512052324346  0.025595795176965867  0.39442075947030125  1.0000
  N   N1        1.0  0.23173007857877825  0.4842132439409911  0.13170849736859908  1.0000
  N   N2        1.0  0.26826992081285966  0.9842132439552386  0.36829150200478306  1.0000
  N   N3        1.0  0.7682699216769714  0.5157867560875038  0.8682915024733944  1.0000
  N   N4        1.0  0.7317300783208023  0.01578675607325634  0.6317084978361084  1.0000
  Cl  Cl1       1.0  0.3079347904511281  0.7063145935975722  0.26473865546472525  1.0000
  Cl  Cl2       1.0  0.19206520929089582  0.20631459358332485  0.23526134500278398  1.0000
  Cl  Cl3       1.0  0.6920652086825339  0.29368540643092256  0.7352613443761661  1.0000
  Cl  Cl4       1.0  0.8079347913152399  0.79368540644517  0.7647386559333367  1.0000
  Cl  Cl5       1.0  0.2489898402075508  0.4232551353993369  0.5113613868615471  1.0000
  Cl  Cl6       1.0  0.2510101590070896  0.9232551354135843  0.988638612804362  1.0000
  Cl  Cl7       1.0  0.7510101589261111  0.5767448646291579  0.48863861297934424  1.0000
  Cl  Cl8       1.0  0.7489898401265722  0.0767448646149105  0.011361387036529464  1.0000
  I   I1        1.0  0.2788108734164847  0.5678689626863771  0.3947149812541569  1.0000
  I   I2        1.0  0.22118912597515325  0.06786896267212975  0.10528501811922522  1.0000
  I   I3        1.0  0.7211891268392648  0.43213103734211766  0.6052850185878365  1.0000
  I   I4        1.0  0.7788108742805964  0.932131037356365  0.894714981722768  1.0000
