data_image0
_chemical_formula_structural       H72C52N8O4F16P2
_chemical_formula_sum              "H72 C52 N8 O4 F16 P2"
_cell_length_a       5.904082276592944
_cell_length_b       10.847407057326494
_cell_length_c       21.64129603284102
_cell_angle_alpha    90.0
_cell_angle_beta     95.79731235793773
_cell_angle_gamma    90.0

_space_group_name_H-M_alt    "P 1"
_space_group_IT_number       1

loop_
  _space_group_symop_operation_xyz
  'x, y, z'

loop_
  _atom_site_type_symbol
  _atom_site_label
  _atom_site_symmetry_multiplicity
  _atom_site_fract_x
  _atom_site_fract_y
  _atom_site_fract_z
  _atom_site_occupancy
  H   H1        1.0  0.9105025419805002  0.16518253353365137  0.318730780863165  1.0000
  H   H2        1.0  0.08949745812619422  0.665182533656884  0.681269218940158  1.0000
  H   H3        1.0  0.640450974503125  0.16889106772872697  0.3347245044158907  1.0000
  H   H4        1.0  0.3595490257816659  0.6688910669300802  0.6652754958518844  1.0000
  H   H5        1.0  0.5579742340490125  0.2938712351397336  0.15260862007355455  1.0000
  H   H6        1.0  0.4420257662357787  0.7938712352629661  0.8473913801942206  1.0000
  H   H7        1.0  0.923418380718535  0.9633689281478456  0.3226175065928061  1.0000
  H   H8        1.0  0.07658161938815937  0.4633689280246131  0.677382493210517  1.0000
  H   H9        1.0  0.23666869018296313  0.18132865021152653  0.5104575433289066  1.0000
  H   H10       1.0  0.7633313101018279  0.6813286503347591  0.48954245693886833  1.0000
  H   H11       1.0  0.19495966746621907  0.019970112567471974  0.5226408044822197  1.0000
  H   H12       1.0  0.8050403326404754  0.5199701126907045  0.4773591953211033  1.0000
  H   H13       1.0  0.9910667749600042  0.13058157516484964  0.543844101402217  1.0000
  H   H14       1.0  0.008933225324786988  0.6305815743662029  0.45615589886555813  1.0000
  H   H15       1.0  0.7294700073223733  0.2778787579437358  0.4904525276875092  1.0000
  H   H16       1.0  0.2705299910912116  0.7778787580669683  0.5095474721174958  1.0000
  H   H17       1.0  0.5542782441165689  0.16338025581910798  0.44919322297330744  1.0000
  H   H18       1.0  0.4457217559901256  0.6633802559423405  0.5508067768300157  1.0000
  H   H19       1.0  0.5858588664941088  0.3127123986472799  0.41647664112580807  1.0000
  H   H20       1.0  0.41414113361258564  0.812712397848633  0.583523358677515  1.0000
  H   H21       1.0  0.19194466987285203  0.2697679689289015  0.3827500862233162  1.0000
  H   H22       1.0  0.8080553304119389  0.769767969052134  0.6172499140444588  1.0000
  H   H23       1.0  0.09392924908908544  0.3452570222733991  0.4492587020302297  1.0000
  H   H24       1.0  0.9060707511957056  0.8452570223966317  0.5507412982375453  1.0000
  H   H25       1.0  0.9539336855586968  0.37071807656410716  0.3738369876268171  1.0000
  H   H26       1.0  0.0460663147260941  0.8707180766873398  0.6261630126409579  1.0000
  H   H27       1.0  0.4938366935174803  0.9702685641257773  0.3077955150996432  1.0000
  H   H28       1.0  0.5061633067673108  0.47026856400254474  0.6922044851681318  1.0000
  H   H29       1.0  0.9026944155764802  0.7734072931589339  0.3061003627822302  1.0000
  H   H30       1.0  0.09730558453021418  0.2734072930357014  0.6938996370210929  1.0000
  H   H31       1.0  0.8723080138967633  0.5492123157650104  0.29840765113539924  1.0000
  H   H32       1.0  0.1276919863880278  0.049212315641777846  0.7015923491323758  1.0000
  H   H33       1.0  0.5332503974294975  0.4393216152777555  0.332318458988623  1.0000
  H   H34       1.0  0.4667496026771969  0.9393216154009881  0.6676815408147002  1.0000
  H   H35       1.0  0.23917172683372165  0.5590555049655008  0.38128991855576055  1.0000
  H   H36       1.0  0.7608282732729726  0.05905550484226829  0.6187100812475624  1.0000
  H   H37       1.0  0.2723187950883534  0.7860445943384275  0.39181470283121805  1.0000
  H   H38       1.0  0.727681205018341  0.28604459421519507  0.608185296972105  1.0000
  H   H39       1.0  0.00519980394456267  0.3825950836054336  0.15017011017128598  1.0000
  H   H40       1.0  0.9948001963402283  0.8825950837286661  0.8498298900964891  1.0000
  H   H41       1.0  0.9052731354000693  0.3550604203977624  0.9443133521346528  1.0000
  H   H42       1.0  0.09472686470662503  0.8550604205209951  0.055686647668670194  1.0000
  H   H43       1.0  0.6084542486818231  0.32301259752518  0.9342483368093287  1.0000
  H   H44       1.0  0.39154575142487136  0.8230125976484125  0.06575166299399449  1.0000
  H   H45       1.0  0.8094422986156967  0.19912371210787388  0.9479697449688373  1.0000
  H   H46       1.0  0.19055769997598493  0.6991237122311064  0.052030255300619735  1.0000
  H   H47       1.0  0.32455295748576557  0.2342398166282368  0.9976850233714617  1.0000
  H   H48       1.0  0.6754470427990255  0.7342398167514693  0.0023149768963134183  1.0000
  H   H49       1.0  0.3372378029389661  0.35898833697495236  0.05214538095451454  1.0000
  H   H50       1.0  0.6627621954746188  0.8589883370981849  0.9478546188504905  1.0000
  H   H51       1.0  0.27517196504048075  0.20585692582558618  0.07580347092284824  1.0000
  H   H52       1.0  0.7248280352443102  0.7058569259488187  0.9241965293449268  1.0000
  H   H53       1.0  0.619384373930298  0.06432665302522332  0.010704590149015933  1.0000
  H   H54       1.0  0.3806156261763965  0.5643266522265765  0.9892954096543071  1.0000
  H   H55       1.0  0.5839981940262106  0.047868670112208106  0.09082984727799123  1.0000
  H   H56       1.0  0.4160018062585804  0.5478686702354406  0.9091701529897838  1.0000
  H   H57       1.0  0.8605060113548302  0.07799196762221552  0.06619648205277942  1.0000
  H   H58       1.0  0.13949398892996082  0.577991967745448  0.9338035182149955  1.0000
  H   H59       1.0  0.6478279215926769  0.4759540895547868  0.19464896396160475  1.0000
  H   H60       1.0  0.35217207851401755  0.9759540896780192  0.8053510358417184  1.0000
  H   H61       1.0  0.6062266633459756  0.7450912312303329  0.13481753540422448  1.0000
  H   H62       1.0  0.3937733367607186  0.24509123110710043  0.8651824643990985  1.0000
  H   H63       1.0  0.8446996018826399  0.9310425935549936  0.162285654224289  1.0000
  H   H64       1.0  0.1553003982240546  0.4310425934317611  0.837714345579034  1.0000
  H   H65       1.0  0.24453231547481824  0.9058487634944338  0.20812593163860985  1.0000
  H   H66       1.0  0.7554676846318761  0.40584876337120135  0.7918740681647132  1.0000
  H   H67       1.0  0.4001118391947254  0.6954899968379538  0.23090356255837632  1.0000
  H   H68       1.0  0.5998881610900656  0.19548999671472123  0.7690964377093988  1.0000
  H   H69       1.0  0.1668463170231386  0.5123472946694935  0.20407546714458624  1.0000
  H   H70       1.0  0.8331536832616524  0.012347294546260953  0.7959245331231887  1.0000
  H   H71       1.0  0.8067763965788649  0.2146837006939019  0.15121267852049886  1.0000
  H   H72       1.0  0.19322360370592606  0.7146837008171344  0.8487873217472761  1.0000
  C   C1        1.0  0.9498622451399413  0.9805273005603835  0.42227068931418144  1.0000
  C   C2        1.0  0.050137755144849694  0.480527300437151  0.5777293109535936  1.0000
  C   C3        1.0  0.8804416925074812  0.1962112197644929  0.4141425957218071  1.0000
  C   C4        1.0  0.11955830777730989  0.6962112198877254  0.5858574045459679  1.0000
  C   C5        1.0  0.8204774885293132  0.9981324673058332  0.35830450978326445  1.0000
  C   C6        1.0  0.1795225115773812  0.4981324681044799  0.6416954900200587  1.0000
  C   C7        1.0  0.11024953459911489  0.10736006161153758  0.509852464195879  1.0000
  C   C8        1.0  0.8897504639925666  0.6073600608128907  0.490147536073578  1.0000
  C   C9        1.0  0.6729477748458361  0.2396643129792111  0.4446495856797483  1.0000
  C   C10       1.0  0.32705222526085814  0.7396643131024436  0.5553504141235747  1.0000
  C   C11       1.0  0.042552195437306026  0.30157708129801375  0.4043741245148868  1.0000
  C   C12       1.0  0.9574478048474849  0.8015770814212463  0.5956258757528882  1.0000
  C   C13       1.0  0.588349153231245  0.9355684272164898  0.3506963084223104  1.0000
  C   C14       1.0  0.411650847053546  0.4355684270932573  0.6493036918454645  1.0000
  C   C15       1.0  0.5891872556151247  0.7961842580773034  0.3499150117042404  1.0000
  C   C16       1.0  0.41081274449156957  0.29618425795407094  0.6500849880990827  1.0000
  C   C17       1.0  0.7575392794263878  0.7282460387309343  0.3237929719659498  1.0000
  C   C18       1.0  0.24246072085840342  0.22824603952958109  0.6762070283018253  1.0000
  C   C19       1.0  0.7393964585230861  0.6001374010946788  0.3188606960451438  1.0000
  C   C20       1.0  0.2606035415836082  0.10013740097144634  0.6811393037581793  1.0000
  C   C21       1.0  0.5525734457255003  0.538559149585361  0.33898473762014036  1.0000
  C   C22       1.0  0.44742655455929076  0.038559149462128524  0.6610152626476347  1.0000
  C   C23       1.0  0.3863444831919161  0.6061452866341067  0.36568722456842867  1.0000
  C   C24       1.0  0.6136555169147783  0.10614528651087425  0.6343127752348943  1.0000
  C   C25       1.0  0.40402707025006607  0.7339724984896326  0.3713643926317967  1.0000
  C   C26       1.0  0.595972930034725  0.2339724983664001  0.6286356076359784  1.0000
  C   C27       1.0  0.8666795610240408  0.4105970382103217  0.05579325193727704  1.0000
  C   C28       1.0  0.1333204392607502  0.9105970383335543  0.944206748330498  1.0000
  C   C29       1.0  0.6278695052692147  0.23455729434266206  0.06193702914245762  1.0000
  C   C30       1.0  0.37213049483747956  0.7345572944658946  0.9380629706608654  1.0000
  C   C31       1.0  0.8368447934237726  0.39699395507532154  0.12465795138808913  1.0000
  C   C32       1.0  0.1631552066829217  0.8969939551985541  0.8753420484152339  1.0000
  C   C33       1.0  0.7719169892204181  0.29512566672214663  0.9591468943345297  1.0000
  C   C34       1.0  0.22808301106437298  0.7951256668453792  0.04085310593324527  1.0000
  C   C35       1.0  0.3751906733511153  0.26111751361694535  0.045965639142028586  1.0000
  C   C36       1.0  0.6248093267555791  0.7611175137401779  0.9540343606612945  1.0000
  C   C37       1.0  0.6781529867941302  0.09759427892815879  0.0573685884235941  1.0000
  C   C38       1.0  0.32184701331256427  0.5975942790513913  0.9426314113797288  1.0000
  C   C39       1.0  0.7198692264505034  0.5063746101691694  0.15208545075331964  1.0000
  C   C40       1.0  0.28013077214117804  0.006374610045936873  0.8479145495161372  1.0000
  C   C41       1.0  0.8709705483887898  0.6170453837149239  0.1658205628426748  1.0000
  C   C42       1.0  0.12902945189600118  0.11704538359169141  0.8341794374251004  1.0000
  C   C43       1.0  0.78155808284372  0.7354759186078059  0.15503802564591537  1.0000
  C   C44       1.0  0.21844191744107108  0.23547591848457344  0.8449619746218596  1.0000
  C   C45       1.0  0.9150207531302337  0.8391022814850783  0.17064787681988963  1.0000
  C   C46       1.0  0.08497924715455742  0.3391022813618457  0.8293521234478854  1.0000
  C   C47       1.0  0.1392505518723617  0.8251730678765645  0.19708200163708997  1.0000
  C   C48       1.0  0.8607494482343326  0.32517306775333205  0.802917998166233  1.0000
  C   C49       1.0  0.22668632135634742  0.7072490927514649  0.2093333736411675  1.0000
  C   C50       1.0  0.7733136789284436  0.20724909262823238  0.7906666266266076  1.0000
  C   C51       1.0  0.09379320231264938  0.6033019970039671  0.19403657232639898  1.0000
  C   C52       1.0  0.906206797794045  0.10330199780261391  0.8059634274769242  1.0000
  N   N1        1.0  0.9931324034442934  0.09261723974131131  0.4481226206798388  1.0000
  N   N2        1.0  0.006867596840497497  0.5926172398645437  0.551877379587936  1.0000
  N   N3        1.0  0.8054096411034938  0.13535638998707183  0.35146128780085506  1.0000
  N   N4        1.0  0.19459035918129736  0.6353563901103043  0.64853871246692  1.0000
  N   N5        1.0  0.7697917581276601  0.31107911154867934  0.02554659729954425  1.0000
  N   N6        1.0  0.23020824215713087  0.8110791116719118  0.9744534029682308  1.0000
  N   N7        1.0  0.7032196177033716  0.28001357134915317  0.1278688269059761  1.0000
  N   N8        1.0  0.29678038258141937  0.7800135714723858  0.8721311733617989  1.0000
  O   O1        1.0  0.004823376538720733  0.8794819231529143  0.44540191596180195  1.0000
  O   O2        1.0  0.9951766235679737  0.3794819230296818  0.554598083841521  1.0000
  O   O3        1.0  0.9678127002121283  0.49569027525046444  0.03272315458390843  1.0000
  O   O4        1.0  0.0321873000726628  0.9956902753736969  0.9672768456838666  1.0000
  F   F1        1.0  0.4635717548908728  0.9781376170292864  0.3996690560903587  1.0000
  F   F2        1.0  0.5364282452158216  0.47813761690605383  0.6003309437129644  1.0000
  F   F3        1.0  0.5278452238654276  0.5383874670818689  0.1099424933675201  1.0000
  F   F4        1.0  0.4721547764193633  0.03838746788051569  0.8900575069002549  1.0000
  F   F5        1.0  0.997073339724233  0.26892872965707465  0.25552288193047246  1.0000
  F   F6        1.0  0.002926660382461457  0.768928729780307  0.7444771178728505  1.0000
  F   F7        1.0  0.483346826648399  0.10576626136889591  0.21550370863625248  1.0000
  F   F8        1.0  0.516653173636392  0.6057662614921284  0.7844962916315225  1.0000
  F   F9        1.0  0.09241346994040332  0.13437749337667607  0.16968670067009317  1.0000
  F   F10       1.0  0.9075865301662911  0.6343774934999086  0.8303132991332299  1.0000
  F   F11       1.0  0.4262386363276286  0.24308551399101735  0.3107738462020052  1.0000
  F   F12       1.0  0.5737613637790657  0.74308551411425  0.6892261536013178  1.0000
  F   F13       1.0  0.16718809128316406  0.06617958339777945  0.2757035014301252  1.0000
  F   F14       1.0  0.8328119088235303  0.5661795835210119  0.7242964983731978  1.0000
  F   F15       1.0  0.3438572769066904  0.3303664766207489  0.18560905172471354  1.0000
  F   F16       1.0  0.6561427233781008  0.8303664767439815  0.8143909485430616  1.0000
  P   P1        1.0  0.2498186067406807  0.18745842017854275  0.23485768160960185  1.0000
  P   P2        1.0  0.7501813933660137  0.6874584193798959  0.7651423181937212  1.0000
