data_image0
_chemical_formula_structural       H10C16N2F8I2
_chemical_formula_sum              "H10 C16 N2 F8 I2"
_cell_length_a       5.143363658312316
_cell_length_b       8.768293684156674
_cell_length_c       10.857101015871521
_cell_angle_alpha    75.54118359698532
_cell_angle_beta     83.2311556190114
_cell_angle_gamma    90.43603722247626

_space_group_name_H-M_alt    "P 1"
_space_group_IT_number       1

loop_
  _space_group_symop_operation_xyz
  'x, y, z'

loop_
  _atom_site_type_symbol
  _atom_site_label
  _atom_site_symmetry_multiplicity
  _atom_site_fract_x
  _atom_site_fract_y
  _atom_site_fract_z
  _atom_site_occupancy
  H   H1        1.0  0.590390439774671  0.23953675895874557  0.621373572330444  1.0000
  H   H2        1.0  0.4096095595099679  0.7604632411171097  0.3786264268607713  1.0000
  H   H3        1.0  0.26246826941062257  0.40842543928238223  0.508605341109478  1.0000
  H   H4        1.0  0.7375317296322644  0.5915745605000766  0.4913946590402739  1.0000
  H   H5        1.0  0.48099661164171764  0.27365569612566304  0.17275507663993744  1.0000
  H   H6        1.0  0.5190033895872891  0.726344303954983  0.827244922550999  1.0000
  H   H7        1.0  0.8090924512983809  0.09447159870627406  0.27138587502252653  1.0000
  H   H8        1.0  0.1909075477445061  0.9055284010761849  0.7286141251272253  1.0000
  H   H9        1.0  0.9326999493433092  0.05873358999828427  0.6218368523286917  1.0000
  H   H10       1.0  0.06730005164394533  0.941266409788965  0.3781631478207816  1.0000
  C   C1        1.0  0.882732851633953  0.7755458474753807  0.09835696140400622  1.0000
  C   C2        1.0  0.11726714960268536  0.224454153746805  0.9016430377835435  1.0000
  C   C3        1.0  0.063292300693317  0.9260754465256912  0.04096751832041352  1.0000
  C   C4        1.0  0.9367076983495701  0.07392455325676782  0.9590324818293384  1.0000
  C   C5        1.0  0.5723633332348116  0.2422244712689765  0.5219385975368784  1.0000
  C   C6        1.0  0.4276366677524432  0.7577755285182731  0.4780614026125948  1.0000
  C   C7        1.0  0.3889816108722443  0.3373752594336239  0.4590785786584099  1.0000
  C   C8        1.0  0.6110183901150105  0.6626247403536256  0.5409214214910633  1.0000
  C   C9        1.0  0.508838943148343  0.26121752835575696  0.2727104831568533  1.0000
  C   C10       1.0  0.4911610580806638  0.738782471724889  0.7272895160340831  1.0000
  C   C11       1.0  0.693978407639437  0.16126116061230836  0.32867575176272934  1.0000
  C   C12       1.0  0.30602159358956976  0.8387388394683377  0.6713242474282072  1.0000
  C   C13       1.0  0.7316408146348813  0.15024964493705867  0.4568532567350997  1.0000
  C   C14       1.0  0.2683591863523735  0.8497503548501908  0.5431467434143735  1.0000
  C   C15       1.0  0.9217021579686139  0.04987006670251537  0.524077855191833  1.0000
  C   C16       1.0  0.07829784131602512  0.95012993337334  0.4759221439993822  1.0000
  N   N1        1.0  0.3578465268104583  0.34815223166847425  0.3363191775701494  1.0000
  N   N2        1.0  0.6421534744185486  0.6518477684121716  0.6636808216207871  1.0000
  F   F1        1.0  0.7826216519186022  0.7307659514421706  0.000429012540027439  1.0000
  F   F2        1.0  0.21737834712428478  0.2692340483402883  0.9995709876097245  1.0000
  F   F3        1.0  0.6756725927805685  0.8143924104775624  0.17569118559260544  1.0000
  F   F4        1.0  0.32432740626231843  0.18560758930489651  0.8243088145571467  1.0000
  F   F5        1.0  0.15575299878438081  0.9692327173613183  0.14162630838806214  1.0000
  F   F6        1.0  0.8442470022028741  0.030767282425931183  0.8583736917614111  1.0000
  F   F7        1.0  0.2714664620853386  0.8868481205697784  0.96581843056175  1.0000
  F   F8        1.0  0.7285335369575484  0.11315187921268044  0.03418156958800204  1.0000
  I   I1        1.0  0.09057245493663507  0.5780978484322806  0.20907161180448777  1.0000
  I   I2        1.0  0.9094275460506195  0.42190215135496895  0.7909283883449855  1.0000
