data_image0
_chemical_formula_structural       H8C20N2F20I2
_chemical_formula_sum              "H8 C20 N2 F20 I2"
_cell_length_a       5.3077278327052335
_cell_length_b       7.266254191111746
_cell_length_c       17.104458348647576
_cell_angle_alpha    92.00004230831784
_cell_angle_beta     93.83244883926254
_cell_angle_gamma    108.09910193155753

_space_group_name_H-M_alt    "P 1"
_space_group_IT_number       1

loop_
  _space_group_symop_operation_xyz
  'x, y, z'

loop_
  _atom_site_type_symbol
  _atom_site_label
  _atom_site_symmetry_multiplicity
  _atom_site_fract_x
  _atom_site_fract_y
  _atom_site_fract_z
  _atom_site_occupancy
  H   H1        1.0  0.794840151013517  0.401893085951891  0.8705996455088074  1.0000
  H   H2        1.0  0.20515984881424698  0.598106914294091  0.12940035456209337  1.0000
  H   H3        1.0  0.9312609349461867  0.13898319812507454  0.8100871331187359  1.0000
  H   H4        1.0  0.06873906488157719  0.8610168021209073  0.18991286695216483  1.0000
  H   H5        1.0  0.4133174953522742  0.12023017535717598  0.008083594645902102  1.0000
  H   H6        1.0  0.5866825044754899  0.8797698248888061  0.9919164054249987  1.0000
  H   H7        1.0  0.2991899318841967  0.3786006334955857  0.07817455776043457  1.0000
  H   H8        1.0  0.7008100698317734  0.621399366764821  0.9218254423025939  1.0000
  C   C1        1.0  0.5778331564303459  0.36447380034914123  0.2509973559266813  1.0000
  C   C2        1.0  0.42216684319656816  0.6355261997801173  0.7490026435574453  1.0000
  C   C3        1.0  0.7975025226217525  0.4823092370968562  0.31473198015762105  1.0000
  C   C4        1.0  0.20249747720601147  0.5176907631491257  0.6852680199132797  1.0000
  C   C5        1.0  0.7255870836021412  0.6432351103142898  0.36427761251816165  1.0000
  C   C6        1.0  0.2744129162256227  0.35676488993169203  0.635722387552739  1.0000
  C   C7        1.0  0.9688838404413695  0.7881619434639395  0.4155643364251965  1.0000
  C   C8        1.0  0.031116159386394546  0.2118380567820424  0.5844356636457042  1.0000
  C   C9        1.0  0.8826117181626992  0.9129746419131323  0.4796497016941419  1.0000
  C   C10       1.0  0.1173882816650647  0.08702535833284966  0.5203502983767588  1.0000
  C   C11       1.0  0.9326110560378277  0.34573681752680147  0.9042719187773625  1.0000
  C   C12       1.0  0.06738894319868029  0.6542631812735921  0.09572808130627375  1.0000
  C   C13       1.0  0.008773237227559438  0.19772788028916854  0.8694431210003534  1.0000
  C   C14       1.0  0.9912267626002047  0.8022721199568135  0.13055687907054733  1.0000
  C   C15       1.0  0.2772888108245351  0.18712733953293795  0.979165905597701  1.0000
  C   C16       1.0  0.722711189003229  0.812872660713044  0.020834094473199945  1.0000
  C   C17       1.0  0.21147129210027135  0.33412602112556433  0.018562602900416808  1.0000
  C   C18       1.0  0.7885287077274927  0.6658739791204177  0.9814373971704841  1.0000
  C   C19       1.0  0.03605172129770752  0.41977977117309034  0.9807399529884688  1.0000
  C   C20       1.0  0.9639482785300564  0.5802202290728915  0.019260047082431845  1.0000
  N   N1        1.0  0.1800241002717855  0.1200993214934363  0.9056613964385513  1.0000
  N   N2        1.0  0.8199758995559785  0.8799006787525455  0.0943386036323495  1.0000
  F   F1        1.0  0.5167208164227653  0.4906758012021998  0.20015069743414665  1.0000
  F   F2        1.0  0.4832791832041487  0.5093241989270586  0.7998493020499801  1.0000
  F   F3        1.0  0.35329246686293986  0.2758452929953771  0.28710166190714886  1.0000
  F   F4        1.0  0.6467075329648242  0.7241547072506047  0.712898338163752  1.0000
  F   F5        1.0  0.8490680721957612  0.35391301639059475  0.3646463830981185  1.0000
  F   F6        1.0  0.15093192743115275  0.6460869837386637  0.6353536163860081  1.0000
  F   F7        1.0  0.02363402063112981  0.5701217050171105  0.27863258476424196  1.0000
  F   F8        1.0  0.9763659810848403  0.42987829524329624  0.7213674152987866  1.0000
  F   F9        1.0  0.534349367709302  0.5529611632339221  0.4116651444961989  1.0000
  F   F10       1.0  0.46565063211846214  0.4470388370120599  0.5883348555747019  1.0000
  F   F11       1.0  0.6258045010299126  0.7514117952626409  0.3144988868541695  1.0000
  F   F12       1.0  0.3741954987978514  0.24858820498334103  0.6855011132167312  1.0000
  F   F13       1.0  0.12561841101066143  0.9080507398093096  0.3661050331136051  1.0000
  F   F14       1.0  0.8743815888171026  0.09194926043667222  0.6338949669572955  1.0000
  F   F15       1.0  0.11227182402980798  0.686135456922781  0.45295589874891384  1.0000
  F   F16       1.0  0.8877281752067002  0.3138645418776127  0.5470441013347225  1.0000
  F   F17       1.0  0.6980185742377336  0.9866779371568796  0.4451090826425945  1.0000
  F   F18       1.0  0.30198142559003044  0.013322063089102392  0.5548909174283062  1.0000
  F   F19       1.0  0.7695388980816407  0.7921826705684244  0.5355149196196892  1.0000
  F   F20       1.0  0.23046110363432937  0.20781732969198222  0.4644850804433393  1.0000
  I   I1        1.0  0.6969173259629354  0.14846210496777712  0.1816050741393135  1.0000
  I   I2        1.0  0.30308267327357274  0.8515378938326167  0.8183949259443227  1.0000
