data_image0
_chemical_formula_structural       H10C14N2F4I2
_chemical_formula_sum              "H10 C14 N2 F4 I2"
_cell_length_a       5.649321840778575
_cell_length_b       8.406448773518049
_cell_length_c       8.943453022987496
_cell_angle_alpha    78.14233997691593
_cell_angle_beta     71.10536670765082
_cell_angle_gamma    76.467429539586

_space_group_name_H-M_alt    "P 1"
_space_group_IT_number       1

loop_
  _space_group_symop_operation_xyz
  'x, y, z'

loop_
  _atom_site_type_symbol
  _atom_site_label
  _atom_site_symmetry_multiplicity
  _atom_site_fract_x
  _atom_site_fract_y
  _atom_site_fract_z
  _atom_site_occupancy
  H   H1        1.0  0.30726269400365624  0.5888806536175708  0.13799549622486187  1.0000
  H   H2        1.0  0.6927373056164943  0.4111193461337118  0.8620045032643165  1.0000
  H   H3        1.0  0.46363094068263255  0.4947895827689595  0.3738900270028388  1.0000
  H   H4        1.0  0.5363690607135044  0.5052104169733902  0.6261099724808252  1.0000
  H   H5        1.0  0.014994161532340688  0.13402528488081328  0.5484724785006893  1.0000
  H   H6        1.0  0.9850058398637963  0.8659747148615364  0.4515275209829747  1.0000
  H   H7        1.0  0.8421269752385464  0.20878148979787758  0.31535246487096524  1.0000
  H   H8        1.0  0.15787302520238716  0.7912185109918064  0.6846475358080065  1.0000
  H   H9        1.0  0.8322091415723154  0.3666827734153316  0.06591156740424457  1.0000
  H   H10       1.0  0.16779085750527994  0.6333172261600236  0.9340884332786651  1.0000
  C   C1        1.0  0.39140024474781504  0.9922382034225984  0.9695783993181759  1.0000
  C   C2        1.0  0.6085997566483219  0.007761796319751222  0.030421600165488123  1.0000
  C   C3        1.0  0.23660609401093433  0.48633947073321426  0.22402713560947915  1.0000
  C   C4        1.0  0.7633939073852026  0.5136605290091354  0.7759728638741848  1.0000
  C   C5        1.0  0.32498876392361  0.4339989310805385  0.35721146486933797  1.0000
  C   C6        1.0  0.6750112374725271  0.566001068661811  0.642788534614326  1.0000
  C   C7        1.0  0.07649347011591053  0.2333080188447417  0.4535237790834366  1.0000
  C   C8        1.0  0.9235065308675781  0.7666919821208696  0.5464762204018039  1.0000
  C   C9        1.0  0.9786993788891712  0.2764846388243551  0.3239264147137165  1.0000
  C   C10       1.0  0.02130062031833083  0.7235153621501893  0.6760735847770384  1.0000
  C   C11       1.0  0.061381044155619055  0.4044711456489225  0.202700916835454  1.0000
  C   C12       1.0  0.9386189554645316  0.5955288541023601  0.7972990826537245  1.0000
  C   C13       1.0  0.9667785089419271  0.44207045450904014  0.06368142920580727  1.0000
  C   C14       1.0  0.033221490678223324  0.5579295452422426  0.9363185702833712  1.0000
  N   N1        1.0  0.24971641234860126  0.3085351610243347  0.47023732638061405  1.0000
  N   N2        1.0  0.7502835863163456  0.6914648397742823  0.5297626743038722  1.0000
  F   F1        1.0  0.16583484456882738  0.03145830616728749  0.08423514091594754  1.0000
  F   F2        1.0  0.8341651546386746  0.9685416948072567  0.9157648585748075  1.0000
  F   F3        1.0  0.41673660142006436  0.8293008954366602  0.952313241347207  1.0000
  F   F4        1.0  0.5832633982000861  0.17069910431462249  0.04768675814197154  1.0000
  I   I1        1.0  0.3737038166295697  0.14661655237095175  0.7413896062030146  1.0000
  I   I2        1.0  0.6262961829905808  0.8533834473803309  0.25861039328616386  1.0000
