data_image0
_chemical_formula_structural       H9C22F8
_chemical_formula_sum              "H9 C22 F8"
_cell_length_a       6.604051092795787
_cell_length_b       7.338478906650577
_cell_length_c       10.034064311565503
_cell_angle_alpha    71.02737114097387
_cell_angle_beta     69.91798339219223
_cell_angle_gamma    82.90347886927566

_space_group_name_H-M_alt    "P 1"
_space_group_IT_number       1

loop_
  _space_group_symop_operation_xyz
  'x, y, z'

loop_
  _atom_site_type_symbol
  _atom_site_label
  _atom_site_symmetry_multiplicity
  _atom_site_fract_x
  _atom_site_fract_y
  _atom_site_fract_z
  _atom_site_occupancy
  H   H1        1.0  0.3081090518122054  0.6877304137063843  0.22976793599668438  1.0000
  H   H2        1.0  0.6860016408534343  0.3139695643334906  0.7696791629035876  1.0000
  H   H3        1.0  0.6648484987901992  0.7177592566512191  0.028709021346229633  1.0000
  H   H4        1.0  0.3306255015236044  0.29787307428966026  0.9720074151221697  1.0000
  H   H5        1.0  0.001369063825376305  0.6259748929773234  0.08595462864647911  1.0000
  H   H6        1.0  0.9947446228166846  0.40314696170992775  0.9170565955243866  1.0000
  H   H7        1.0  0.036962516640139775  0.31610919049011926  0.2607040884527428  1.0000
  H   H8        1.0  0.9872621745091008  0.5394146659442887  0.6555081163114672  1.0000
  H   H9        1.0  0.0031860112230027164  0.49598703202561706  0.35205710573405635  1.0000
  C   C1        1.0  0.46023727261773784  0.1439104511487285  0.3348174862541368  1.0000
  C   C2        1.0  0.5692880467476132  0.8703140188672691  0.6870020901842336  1.0000
  C   C3        1.0  0.6422509382254616  0.12221740011815846  0.22674567299789372  1.0000
  C   C4        1.0  0.37119496497129106  0.8827165746609182  0.7907118712230874  1.0000
  C   C5        1.0  0.812984088427412  0.008261602662442594  0.2682205257936906  1.0000
  C   C6        1.0  0.1958653034207758  0.9788933995717034  0.7459070396720158  1.0000
  C   C7        1.0  0.79410885455579  0.9313289943836728  0.4173987871500494  1.0000
  C   C8        1.0  0.2247233570641794  0.06576680274514565  0.5969571238192333  1.0000
  C   C9        1.0  0.4251904143645451  0.05697906862837125  0.486304323624995  1.0000
  C   C10       1.0  0.6027547645189927  0.9509341488007164  0.5324123159644687  1.0000
  C   C11       1.0  0.45448381268540117  0.6361000237975439  0.2578596186267682  1.0000
  C   C12       1.0  0.5387511842083292  0.36531691068732547  0.7423027612832103  1.0000
  C   C13       1.0  0.6577698519036047  0.6558899950053009  0.14460430411971462  1.0000
  C   C14       1.0  0.33728373679081713  0.35507089660751784  0.856183190011964  1.0000
  C   C15       1.0  0.8493634148872103  0.6025336863247758  0.17708737205551878  1.0000
  C   C16       1.0  0.145230077088255  0.4169019370363953  0.8247323928117419  1.0000
  C   C17       1.0  0.8524276081157138  0.5227834422794185  0.3261111524901567  1.0000
  C   C18       1.0  0.13865230219517707  0.49315135892651224  0.6772419046292115  1.0000
  C   C19       1.0  0.6544690629441712  0.49806921772748813  0.4355263496872096  1.0000
  C   C20       1.0  0.33458861949236124  0.5025170579601419  0.566588681128814  1.0000
  C   C21       1.0  0.4572808325306743  0.5563297446824927  0.4023449640349525  1.0000
  C   C22       1.0  0.5321402244180709  0.4413631596987941  0.5989251152197542  1.0000
  F   F1        1.0  0.15868720279389006  0.2573660058801467  0.20486433172385451  1.0000
  F   F2        1.0  0.7310296262420766  0.7769715356891961  0.7381453378662246  1.0000
  F   F3        1.0  0.6728302742324384  0.20698014663066813  0.07849745046344223  1.0000
  F   F4        1.0  0.34197383797948844  0.8031445079151598  0.9375878010748158  1.0000
  F   F5        1.0  0.9935418160821592  0.9748003165030623  0.16381153996123288  1.0000
  F   F6        1.0  0.0033145081193432665  0.985061924724243  0.8500501073489615  1.0000
  F   F7        1.0  0.9650093498699638  0.8295726106774252  0.45170160069096227  1.0000
  F   F8        1.0  0.055965571479604716  0.16038801119065324  0.5556127168887846  1.0000
