data_image0
_chemical_formula_structural       H32C48N8S16
_chemical_formula_sum              "H32 C48 N8 S16"
_cell_length_a       7.249311768161396
_cell_length_b       12.856467079617673
_cell_length_c       13.524797030071056
_cell_angle_alpha    90.0
_cell_angle_beta     98.75037695885862
_cell_angle_gamma    90.0

_space_group_name_H-M_alt    "P 1"
_space_group_IT_number       1

loop_
  _space_group_symop_operation_xyz
  'x, y, z'

loop_
  _atom_site_type_symbol
  _atom_site_label
  _atom_site_symmetry_multiplicity
  _atom_site_fract_x
  _atom_site_fract_y
  _atom_site_fract_z
  _atom_site_occupancy
  H   H1        1.0  0.4157480285711111  0.14276754948565418  0.4294033301093756  1.0000
  H   H2        1.0  0.08425197173081654  0.6427675495005233  0.07059667032971366  1.0000
  H   H3        1.0  0.5842519706410076  0.8572324497662652  0.5705966699138489  1.0000
  H   H4        1.0  0.915748028876983  0.3572324505292148  0.9294033298094067  1.0000
  H   H5        1.0  0.21589097665250626  0.19024256701730963  0.4783401277977703  1.0000
  H   H6        1.0  0.2841090236494214  0.6902425670321787  0.021659872641318925  1.0000
  H   H7        1.0  0.7841090239552934  0.8097574330124284  0.52165987234135  1.0000
  H   H8        1.0  0.7158909755626972  0.3097574329975594  0.9783401273819057  1.0000
  H   H9        1.0  0.037433174539682916  0.02907644904972733  0.42154768943030885  1.0000
  H   H10       1.0  0.46256682576618896  0.5290764490645964  0.07845231026972226  1.0000
  H   H11       1.0  0.9625668260681166  0.9709235509800107  0.5784523107088115  1.0000
  H   H12       1.0  0.5374331734459298  0.47092355096514177  0.9215476897535021  1.0000
  H   H13       1.0  0.24428009163110886  0.0006823095291790585  0.5068046526663156  1.0000
  H   H14       1.0  0.2557199079571756  0.5006823095440481  0.9931953474107669  1.0000
  H   H15       1.0  0.7557199075810099  0.9993176905005591  0.49319534735690884  1.0000
  H   H16       1.0  0.7442800912549432  0.49931769048569  0.006804652612457554  1.0000
  H   H17       1.0  0.4465241360283486  0.1802729906783165  0.0492789231792642  1.0000
  H   H18       1.0  0.05347586427752322  0.6802729906931856  0.45072107652076693  1.0000
  H   H19       1.0  0.5534758645794509  0.8197270093514216  0.9507210769598561  1.0000
  H   H20       1.0  0.9465241363302762  0.3197270093365525  0.5492789236183534  1.0000
  H   H21       1.0  0.28922814994320983  0.8532961568728443  0.8026340310847123  1.0000
  H   H22       1.0  0.2107718496450746  0.3532961568579752  0.6973659689923702  1.0000
  H   H23       1.0  0.7107718506645896  0.14670384315689383  0.19736596905440804  1.0000
  H   H24       1.0  0.7892281495670442  0.6467038431717629  0.30263403103085423  1.0000
  H   H25       1.0  0.5044841836281218  0.887397320690629  0.7673649709111598  1.0000
  H   H26       1.0  0.9955158172855496  0.3873973206757601  0.7326350289279917  1.0000
  H   H27       1.0  0.49551581698362196  0.112602679339109  0.23263502848890244  1.0000
  H   H28       1.0  0.004484183322249836  0.612602679353978  0.2673649712111287  1.0000
  H   H29       1.0  0.31337551570117245  0.9728442932684696  0.7414400009567215  1.0000
  H   H30       1.0  0.18662448388711195  0.4728442932536005  0.7585599991203611  1.0000
  H   H31       1.0  0.6866244835109464  0.027155706761268536  0.258559999066503  1.0000
  H   H32       1.0  0.8133755167206874  0.5271557067761375  0.2414400010187593  1.0000
  C   C1        1.0  0.03237640219176983  0.01073593150787305  0.04974930228606248  1.0000
  C   C2        1.0  0.46762359811015786  0.5107359315227421  0.4502506981530267  1.0000
  C   C3        1.0  0.9676235984160296  0.9892640685218651  0.9502506978530578  1.0000
  C   C4        1.0  0.5323764011019608  0.489264068506996  0.5497493018701977  1.0000
  C   C5        1.0  0.13097175516425988  0.0981798601577827  0.22042239926078686  1.0000
  C   C6        1.0  0.369028243741987  0.5981798601726518  0.2795776010624064  1.0000
  C   C7        1.0  0.8690282440478588  0.9018201398719554  0.7795776007624375  1.0000
  C   C8        1.0  0.6309717554701318  0.40182013985708637  0.7204223989608181  1.0000
  C   C9        1.0  0.17400879318423162  0.9948430094203108  0.23609985367906294  1.0000
  C   C10       1.0  0.3259912071216402  0.4948430094054417  0.2639001460209682  1.0000
  C   C11       1.0  0.8259912074235678  0.005156990609427334  0.7639001464600573  1.0000
  C   C12       1.0  0.6740087934861593  0.5051569906242964  0.7360998541181522  1.0000
  C   C13       1.0  0.2628121941444859  0.14017309723112456  0.421092787146058  1.0000
  C   C14       1.0  0.23718780616138593  0.6401730972459937  0.0789072125539731  1.0000
  C   C15       1.0  0.7371878064633136  0.8598269027986136  0.5789072129930622  1.0000
  C   C16       1.0  0.762812193054677  0.3598269027837445  0.9210927867301932  1.0000
  C   C17       1.0  0.19037746046568899  0.031107132116725576  0.43222714998842854  1.0000
  C   C18       1.0  0.30962253983623866  0.5311071321315947  0.06777285045066062  1.0000
  C   C19       1.0  0.8096225401421104  0.9688928679130125  0.5677728501506918  1.0000
  C   C20       1.0  0.69037745937588  0.46889286789814344  0.9322271495725638  1.0000
  C   C21       1.0  0.26902271949995776  0.14303807248224892  0.7557270853689846  1.0000
  C   C22       1.0  0.23097728148400745  0.6430380724971181  0.7442729148239937  1.0000
  C   C23       1.0  0.7309772811078418  0.8569619275474891  0.24427291477013563  1.0000
  C   C24       1.0  0.769022719123792  0.3569619275326201  0.2557270853151266  1.0000
  C   C25       1.0  0.272871775361497  0.2461019532353589  0.8997003465599237  1.0000
  C   C26       1.0  0.22712822423073153  0.7461019532502279  0.6002996527781009  1.0000
  C   C27       1.0  0.7271282238545659  0.7538980467943792  0.10029965272424284  1.0000
  C   C28       1.0  0.772871776381012  0.25389804677951017  0.3997003466219614  1.0000
  C   C29       1.0  0.31574792933939644  0.1485061851110638  0.8607963331876007  1.0000
  C   C30       1.0  0.18425207024888796  0.6485061851259328  0.6392036668894817  1.0000
  C   C31       1.0  0.684252071268403  0.8514938149186743  0.1392036669515195  1.0000
  C   C32       1.0  0.8157479289632308  0.3514938149038052  0.36079633313374276  1.0000
  C   C33       1.0  0.4082923609230033  0.0708272657146709  0.9263679609615332  1.0000
  C   C34       1.0  0.09170763866922524  0.5708272657295399  0.5736320383764912  1.0000
  C   C35       1.0  0.5917076382930595  0.9291727343150673  0.07363203832263313  1.0000
  C   C36       1.0  0.9082923619425185  0.42917273430019814  0.42636796102357105  1.0000
  C   C37       1.0  0.4696902370992353  0.10002942581627519  0.02772289502410477  1.0000
  C   C38       1.0  0.03030976320663652  0.6000294258311443  0.4722771046759264  1.0000
  C   C39       1.0  0.5303097635085642  0.8999705734356443  0.9722771051150155  1.0000
  C   C40       1.0  0.9696902360094264  0.3999705734207752  0.52772289460824  1.0000
  C   C41       1.0  0.4423486916438318  0.9653320693113052  0.898863383968253  1.0000
  C   C42       1.0  0.057651307944452605  0.46533206929643606  0.6011366161088295  1.0000
  C   C43       1.0  0.557651307568287  0.03466793071843299  0.10113661605497141  1.0000
  C   C44       1.0  0.9423486926633469  0.534667930733302  0.3988633840302908  1.0000
  C   C45       1.0  0.38353555238033116  0.9191146733252789  0.7970520672576854  1.0000
  C   C46       1.0  0.11646444860363407  0.4191146733104099  0.7029479329352931  1.0000
  C   C47       1.0  0.6164644482274683  0.0808853267044592  0.202947932881435  1.0000
  C   C48       1.0  0.8835355520041656  0.5808853267193282  0.2970520672038272  1.0000
  N   N1        1.0  0.22932109681845936  0.14602111438345686  0.6682711337159262  1.0000
  N   N2        1.0  0.2706789027698251  0.646021114398326  0.8317288663611564  1.0000
  N   N3        1.0  0.7706789023936594  0.8539788856462812  0.33172886630729836  1.0000
  N   N4        1.0  0.7293210978379744  0.35397888563141217  0.1682711337779639  1.0000
  N   N5        1.0  0.23465648133352182  0.3271388620181551  0.9309830817719716  1.0000
  N   N6        1.0  0.2653435182547626  0.8271388620330242  0.5690169183051109  1.0000
  N   N7        1.0  0.7653435192742777  0.6728611380115829  0.06901691836714871  1.0000
  N   N8        1.0  0.7346564809573561  0.1728611379967139  0.4309830817181135  1.0000
  S   S1        1.0  0.025920481220115477  0.13387077642259887  0.10064447413558962  1.0000
  S   S2        1.0  0.4740795190857564  0.6338707764374679  0.39935552556444154  1.0000
  S   S3        1.0  0.9740795193876841  0.8661292236071393  0.8993555260035307  1.0000
  S   S4        1.0  0.5259204815220432  0.3661292235922702  0.6006444745746788  1.0000
  S   S5        1.0  0.1196550533479335  0.9146408136215359  0.13198444475904406  1.0000
  S   S6        1.0  0.3803449469539941  0.4146408136066668  0.3680155556800451  1.0000
  S   S7        1.0  0.880344947259866  0.08535918640820221  0.8680155553800764  1.0000
  S   S8        1.0  0.6196550522581246  0.5853591864230713  0.6319844443431792  1.0000
  S   S9        1.0  0.16771135621677916  0.20164036542433184  0.30292063682679093  1.0000
  S   S10       1.0  0.33228864408514847  0.7016403654392009  0.19707936361229825  1.0000
  S   S11       1.0  0.8322886429953396  0.7983596346054063  0.6970793631964335  1.0000
  S   S12       1.0  0.667711356522651  0.2983596345905372  0.8029206365268222  1.0000
  S   S13       1.0  0.27049040657807877  0.9371341664383813  0.3481145991796832  1.0000
  S   S14       1.0  0.22950959372779306  0.4371341664235124  0.15188540052034794  1.0000
  S   S15       1.0  0.729509594033665  0.06286583359135668  0.6518854002203791  1.0000
  S   S16       1.0  0.7704904068800065  0.5628658336062257  0.8481145996187723  1.0000
