data_image0
_chemical_formula_structural       H20C44N8O8S8Cl4
_chemical_formula_sum              "H20 C44 N8 O8 S8 Cl4"
_cell_length_a       6.9663196055330285
_cell_length_b       12.19097914178091
_cell_length_c       13.0368239448766
_cell_angle_alpha    90.0
_cell_angle_beta     100.92408004719186
_cell_angle_gamma    90.0

_space_group_name_H-M_alt    "P 1"
_space_group_IT_number       1

loop_
  _space_group_symop_operation_xyz
  'x, y, z'

loop_
  _atom_site_type_symbol
  _atom_site_label
  _atom_site_symmetry_multiplicity
  _atom_site_fract_x
  _atom_site_fract_y
  _atom_site_fract_z
  _atom_site_occupancy
  H   H1        1.0  0.6141562300716161  0.19201624272962514  0.03194987774294039  1.0000
  H   H2        1.0  0.8858437705429855  0.6920162434768617  0.46805012207461066  1.0000
  H   H3        1.0  0.3858437706094408  0.8079837571242907  0.9680501222188743  1.0000
  H   H4        1.0  0.11415623013807154  0.30798375719733284  0.531949877887204  1.0000
  H   H5        1.0  0.3692108972944669  0.9451275870460405  0.3609237818954581  1.0000
  H   H6        1.0  0.130789101621333  0.4451275871190826  0.1390762181132045  1.0000
  H   H7        1.0  0.6307891019618614  0.05487241280787535  0.6390762180941119  1.0000
  H   H8        1.0  0.8692108976349954  0.5548724127348333  0.8609237818763655  1.0000
  H   H9        1.0  0.10804952127461749  0.9553320799381371  0.3216652031167286  1.0000
  H   H10       1.0  0.391950479065911  0.4553320800111791  0.1783347968641788  1.0000
  H   H11       1.0  0.8919504794064395  0.04466791991577885  0.6783347968450861  1.0000
  H   H12       1.0  0.6080495216151459  0.5446679198427368  0.8216652030976359  1.0000
  H   H13       1.0  0.05970271651918637  0.8860910419392247  0.4925961599342419  1.0000
  H   H14       1.0  0.4402972838213421  0.3860910420122667  0.007403840046665502  1.0000
  H   H15       1.0  0.940297282737142  0.11390895791469122  0.5074038400553281  1.0000
  H   H16       1.0  0.559702716859715  0.6139089578416491  0.9925961599151493  1.0000
  H   H17       1.0  0.2244956339124975  0.001696670936718409  0.5132615148995944  1.0000
  H   H18       1.0  0.27550436541028633  0.5016966708636764  0.9867384852342395  1.0000
  H   H19       1.0  0.7755043656717113  0.9983033289171975  0.4867384858706968  1.0000
  H   H20       1.0  0.7244956338460421  0.49830332899023955  0.013261514755330637  1.0000
  C   C1        1.0  0.448691449391926  0.742607136368005  0.14953763822174046  1.0000
  C   C2        1.0  0.05130855094860247  0.2426071364410471  0.3504623617591669  1.0000
  C   C3        1.0  0.551308551289131  0.25739286348591084  0.8504623617400744  1.0000
  C   C4        1.0  0.948691448307726  0.7573928634128687  0.6495376382304031  1.0000
  C   C5        1.0  0.6488326253313835  0.8539771915711065  0.2730052501345921  1.0000
  C   C6        1.0  0.851167375283218  0.3539771916441487  0.22699474968295888  1.0000
  C   C7        1.0  0.35116737534967346  0.1460228091030879  0.7269947498272226  1.0000
  C   C8        1.0  0.14883262539783887  0.6460228090300458  0.7730052502788558  1.0000
  C   C9        1.0  0.5468773408757066  0.8432998884204603  0.169381636651476  1.0000
  C   C10       1.0  0.9531226583141664  0.3432998884935024  0.3306183631938303  1.0000
  C   C11       1.0  0.4531226583806218  0.1567001114334555  0.830618363338094  1.0000
  C   C12       1.0  0.04687734094216191  0.6567001113604134  0.6693816367957396  1.0000
  C   C13       1.0  0.5247285217235358  0.9235262360029995  0.08683074000387661  1.0000
  C   C14       1.0  0.9752714774663371  0.4235262360760416  0.4131692598414297  1.0000
  C   C15       1.0  0.4752714775327926  0.076473764671195  0.9131692599856933  1.0000
  C   C16       1.0  0.024728521789991187  0.5764737645981529  0.5868307401481403  1.0000
  C   C17       1.0  0.5876913196699065  0.03490066917937857  0.0988263561222427  1.0000
  C   C18       1.0  0.9123086795199665  0.5349006699266151  0.40117364372306363  1.0000
  C   C19       1.0  0.4123086795864219  0.9650993306745373  0.9011736438673273  1.0000
  C   C20       1.0  0.08769131973636186  0.46509933074757936  0.5988263562665064  1.0000
  C   C21       1.0  0.5640638794276978  0.10777577951036188  0.016125164376405356  1.0000
  C   C22       1.0  0.9359361211869038  0.6077757794373199  0.48387483544114573  1.0000
  C   C23       1.0  0.4359361212533593  0.892224220343554  0.9838748355854094  1.0000
  C   C24       1.0  0.06406387949415314  0.392224220416596  0.516125164520669  1.0000
  C   C25       1.0  0.46660406073798055  0.5538359430753377  0.4904794430732541  1.0000
  C   C26       1.0  0.03339593817781932  0.05383594314837972  0.009520556935408559  1.0000
  C   C27       1.0  0.5333959385183478  0.4461640567785782  0.5095205569163159  1.0000
  C   C28       1.0  0.966604061078509  0.9461640567055362  0.9904794430541615  1.0000
  C   C29       1.0  0.3098427530059418  0.7277415478133579  0.4052744513128197  1.0000
  C   C30       1.0  0.19015724590985808  0.22774154788639994  0.09472554869584292  1.0000
  C   C31       1.0  0.6901572462503867  0.272258452040558  0.5947255486767503  1.0000
  C   C32       1.0  0.8098427533464703  0.7722584519675159  0.905274451293727  1.0000
  C   C33       1.0  0.3780072324699613  0.7540846681046034  0.5083726871639009  1.0000
  C   C34       1.0  0.12199276685282241  0.2540846681776455  0.9916273129699327  1.0000
  C   C35       1.0  0.6219927667863671  0.2459153317493124  0.49162731282566907  1.0000
  C   C36       1.0  0.878007232403506  0.7459153316762703  0.008372687019637231  1.0000
  C   C37       1.0  0.22794544165736708  0.911617362375086  0.37132213202551007  1.0000
  C   C38       1.0  0.2720545586831614  0.4116173624481279  0.12867786795539726  1.0000
  C   C39       1.0  0.7720545590236899  0.08838263747882999  0.6286778679363046  1.0000
  C   C40       1.0  0.7279454419978955  0.5883826374057879  0.8713221320064174  1.0000
  C   C41       1.0  0.20322496898675851  0.9175668812083536  0.4835494828041385  1.0000
  C   C42       1.0  0.29677503135377  0.41756688128139574  0.01645051717676887  1.0000
  C   C43       1.0  0.7967750316942984  0.08243311864556223  0.5164505171576762  1.0000
  C   C44       1.0  0.7032249693272871  0.5824331185725202  0.9835494827850458  1.0000
  N   N1        1.0  0.3607927395681526  0.6601477171278579  0.13292813101005044  1.0000
  N   N2        1.0  0.13920726077237594  0.16014771720090004  0.367071868970857  1.0000
  N   N3        1.0  0.6392072596881758  0.3398522827260579  0.8670718689795195  1.0000
  N   N4        1.0  0.860792739908681  0.8398522826530158  0.6329281309909578  1.0000
  N   N5        1.0  0.7268326869279139  0.8514274529784559  0.3612955515546395  1.0000
  N   N6        1.0  0.7731673136866877  0.35142745305149786  0.13870444826291162  1.0000
  N   N7        1.0  0.2731673137531432  0.14857254687546007  0.6387044484071753  1.0000
  N   N8        1.0  0.22683268699436931  0.6485725468024179  0.8612955516989033  1.0000
  O   O1        1.0  0.21531788835098237  0.7979629287249277  0.33357812448041924  1.0000
  O   O2        1.0  0.2846821119895461  0.2979629287979698  0.16642187550048812  1.0000
  O   O3        1.0  0.7846821123300747  0.20203707112898814  0.6664218754813955  1.0000
  O   O4        1.0  0.7153178872667821  0.702037071055946  0.8335781244890818  1.0000
  O   O5        1.0  0.35288107064797003  0.8519465687874814  0.5509505814079858  1.0000
  O   O6        1.0  0.14711893009954233  0.3519465688605235  0.9490494186980926  1.0000
  O   O7        1.0  0.647118930033087  0.14805343106643445  0.4490494185538289  1.0000
  O   O8        1.0  0.8528810705815146  0.6480534309933924  0.05095058126372216  1.0000
  S   S1        1.0  0.3557542202129035  0.596045650270754  0.3674223854753426  1.0000
  S   S2        1.0  0.14424578012762504  0.09604565034379604  0.1325776145055647  1.0000
  S   S3        1.0  0.644245779043425  0.4039543495831619  0.6325776145142274  1.0000
  S   S4        1.0  0.8557542205534321  0.9039543495101198  0.8674223854562501  1.0000
  S   S5        1.0  0.4992745159055737  0.6522772180576756  0.5871081734598084  1.0000
  S   S6        1.0  0.0007254834172100805  0.1522772181307176  0.9128918266740254  1.0000
  S   S7        1.0  0.5007254833507546  0.347722782616519  0.41289182652976164  1.0000
  S   S8        1.0  0.9992745158391184  0.8477227825434769  0.08710817331554467  1.0000
  Cl  Cl1       1.0  0.6911776688779042  0.08398963595063802  0.22082800968974323  1.0000
  Cl  Cl2       1.0  0.8088223306398494  0.583989635877596  0.27917199093628414  1.0000
  Cl  Cl3       1.0  0.30882233037842427  0.9160103639032777  0.7791719902998268  1.0000
  Cl  Cl4       1.0  0.19117766861647897  0.4160103639763199  0.7208280090532858  1.0000
