data_image0
_chemical_formula_structural       H38C44N10O16
_chemical_formula_sum              "H38 C44 N10 O16"
_cell_length_a       6.883345706112199
_cell_length_b       8.64833810667508
_cell_length_c       18.57781983892531
_cell_angle_alpha    101.54924307999646
_cell_angle_beta     96.54944855811421
_cell_angle_gamma    101.42839781233948

_space_group_name_H-M_alt    "P 1"
_space_group_IT_number       1

loop_
  _space_group_symop_operation_xyz
  'x, y, z'

loop_
  _atom_site_type_symbol
  _atom_site_label
  _atom_site_symmetry_multiplicity
  _atom_site_fract_x
  _atom_site_fract_y
  _atom_site_fract_z
  _atom_site_occupancy
  H   H1        1.0  0.32672158532732865  0.27427804684688767  0.7915242971394756  1.0000
  H   H2        1.0  0.6732784150118614  0.7257219535567785  0.20847570299776433  1.0000
  H   H3        1.0  0.21360588911720932  0.9827942380760184  0.7296678673243778  1.0000
  H   H4        1.0  0.7863941112219808  0.01720576232764766  0.27033213281286206  1.0000
  H   H5        1.0  0.11785262260469981  0.8991427520919693  0.5910314103904662  1.0000
  H   H6        1.0  0.8821473774041348  0.10085724709714204  0.4089685890825669  1.0000
  H   H7        1.0  0.14469823664120515  0.10914061930364105  0.5159249401720485  1.0000
  H   H8        1.0  0.8553017633597156  0.8908593798882005  0.4840750598391702  1.0000
  H   H9        1.0  0.3386548552107461  0.5789596849227576  0.6335246623207006  1.0000
  H   H10       1.0  0.6613451436655318  0.42104031547872245  0.36647533775131763  1.0000
  H   H11       1.0  0.1331720362981897  0.31368456785760285  0.3592252541690425  1.0000
  H   H12       1.0  0.8668279640410003  0.6863154325460633  0.6407747459681973  1.0000
  H   H13       1.0  0.14492813357689438  0.4985377061954744  0.27558445768653267  1.0000
  H   H14       1.0  0.8550718667702095  0.5014622942054615  0.7244155419125217  1.0000
  H   H15       1.0  0.3456936021598028  0.9071584048370417  0.4667232915046369  1.0000
  H   H16       1.0  0.6543063981793871  0.0928415955666245  0.533276708632603  1.0000
  H   H17       1.0  0.3342247919816979  0.7194250253299311  0.5490775438787987  1.0000
  H   H18       1.0  0.6657752080192229  0.2805749738619105  0.45092245613241994  1.0000
  H   H19       1.0  0.29938314344830635  0.6758913525620728  0.21761752808705778  1.0000
  H   H20       1.0  0.7006168565526145  0.3241086466297689  0.7823824719241609  1.0000
  H   H21       1.0  0.22553437812719132  0.8584843964392644  0.20962661304251037  1.0000
  H   H22       1.0  0.7744656222119988  0.14151560396440171  0.7903733870947295  1.0000
  H   H23       1.0  0.04554178735689581  0.6926150673070104  0.22207857984331889  1.0000
  H   H24       1.0  0.9544582126440249  0.3073849318848311  0.7779214201678997  1.0000
  H   H25       1.0  0.21678820829276904  0.041345439052065086  0.3832372176391312  1.0000
  H   H26       1.0  0.7832117917081517  0.9586545601397766  0.6167627823720874  1.0000
  H   H27       1.0  0.31667719369486746  0.057163130817070196  0.299909993890495  1.0000
  H   H28       1.0  0.6833228063060532  0.9428368683747714  0.7000900061207236  1.0000
  H   H29       1.0  0.47147155449257067  0.031153341088097596  0.3774311635775831  1.0000
  H   H30       1.0  0.5285284458466193  0.9688466593155686  0.6225688365596567  1.0000
  H   H31       1.0  0.6015475619741559  0.2808978050358498  0.912537042058399  1.0000
  H   H32       1.0  0.3984524369021218  0.71910219536563  0.08746295801361918  1.0000
  H   H33       1.0  0.9323561029974087  0.42845234740103133  0.13623908543586433  1.0000
  H   H34       1.0  0.06764389587886906  0.5715476530004485  0.8637609146361538  1.0000
  H   H35       1.0  0.7942116657108786  0.9255395328707615  0.019303208167353883  1.0000
  H   H36       1.0  0.20578833462831142  0.07446046753290468  0.980696791969886  1.0000
  H   H37       1.0  0.5374368384997672  0.728283010122468  0.8465728147850665  1.0000
  H   H38       1.0  0.46256316183942287  0.27171699028119833  0.1534271853521732  1.0000
  C   C1        1.0  0.24873928377105065  0.3081576951357963  0.6108402643737003  1.0000
  C   C2        1.0  0.7512607165681393  0.6918423052678699  0.38915973576353946  1.0000
  C   C3        1.0  0.30196890928379383  0.35660448062588423  0.6895049601341042  1.0000
  C   C4        1.0  0.6980310907171269  0.6433955185659574  0.31049503987711446  1.0000
  C   C5        1.0  0.28695473887433937  0.23713839078407398  0.7311272444798271  1.0000
  C   C6        1.0  0.7130452600098524  0.7628616096146758  0.2688727550540056  1.0000
  C   C7        1.0  0.2215614723149307  0.07359652976469964  0.6964689237057357  1.0000
  C   C8        1.0  0.7784385280242595  0.9264034706389667  0.3035310764315041  1.0000
  C   C9        1.0  0.17008146782450956  0.027150930850474563  0.6187214659625229  1.0000
  C   C10       1.0  0.8299185325225943  0.9728490695504612  0.3812785336365314  1.0000
  C   C11       1.0  0.18364511841232417  0.1426631435042316  0.5762528591794561  1.0000
  C   C12       1.0  0.8163548819268659  0.8573368568994346  0.42374714095778365  1.0000
  C   C13       1.0  0.3776003935581349  0.5297639948483372  0.7294009269680797  1.0000
  C   C14       1.0  0.6223996067810552  0.4702360055553289  0.27059907316916015  1.0000
  C   C15       1.0  0.23164532751550926  0.5014365672758903  0.4600656523189484  1.0000
  C   C16       1.0  0.7683546728315948  0.4985634331250457  0.5399343472801059  1.0000
  C   C17       1.0  0.1792008833385294  0.4440353963521875  0.38196097926100037  1.0000
  C   C18       1.0  0.8207991170006607  0.5559646040514787  0.6180390208762394  1.0000
  C   C19       1.0  0.1862067530168095  0.5484986756795739  0.3350313104176371  1.0000
  C   C20       1.0  0.8137932469841114  0.4515013235122678  0.6649686895935815  1.0000
  C   C21       1.0  0.24699246091863292  0.7192765430058428  0.3638962397219541  1.0000
  C   C22       1.0  0.7530075390822879  0.2807234561859989  0.6361037602892645  1.0000
  C   C23       1.0  0.2991419766911934  0.7773669833637749  0.44297726040929286  1.0000
  C   C24       1.0  0.7008580236479967  0.22263301703989144  0.5570227397279469  1.0000
  C   C25       1.0  0.29198515294189537  0.6716412963086656  0.4892938632829961  1.0000
  C   C26       1.0  0.7080148473972947  0.3283587040950006  0.5107061368542437  1.0000
  C   C27       1.0  0.20367384712115133  0.7581113479230465  0.23739212071623364  1.0000
  C   C28       1.0  0.7963261532180387  0.2418886524806197  0.7626078794210063  1.0000
  C   C29       1.0  0.3179198151155142  0.9971809750455617  0.34638712131189636  1.0000
  C   C30       1.0  0.6820801852236759  0.0028190253581042955  0.6536128788253435  1.0000
  C   C31       1.0  0.6903817165679695  0.0905235797623823  0.9580200767574908  1.0000
  C   C32       1.0  0.3096182837712205  0.9094764206412839  0.04197992337974905  1.0000
  C   C33       1.0  0.681213388443708  0.2509982127784295  0.9600285345225595  1.0000
  C   C34       1.0  0.3187866118954821  0.7490017876252367  0.039971465614680304  1.0000
  C   C35       1.0  0.7718653814966667  0.3697314420403204  0.023730948617500584  1.0000
  C   C36       1.0  0.22813461738752497  0.6302685583584293  0.9762690509163322  1.0000
  C   C37       1.0  0.8679851111982598  0.33448699547848304  0.0863875490127073  1.0000
  C   C38       1.0  0.13201488734766262  0.665513003708442  0.9136124503951042  1.0000
  C   C39       1.0  0.8743960502866573  0.17348027216570666  0.08258201676928205  1.0000
  C   C40       1.0  0.12560395006044653  0.8265197282352292  0.9174179828297724  1.0000
  C   C41       1.0  0.7890291618589745  0.05061679207666722  0.01954686235159096  1.0000
  C   C42       1.0  0.21097083848021553  0.9493832083269991  0.9804531377856489  1.0000
  C   C43       1.0  0.5845739339749682  0.9638514942388904  0.8897310430174583  1.0000
  C   C44       1.0  0.41542606636422186  0.03614850616477588  0.11026895711978164  1.0000
  N   N1        1.0  0.26432655450985537  0.4307253464298315  0.5714603421608658  1.0000
  N   N2        1.0  0.7356734458372485  0.5692746539711043  0.4285396574381885  1.0000
  N   N3        1.0  0.2182367486585923  0.38448137141504807  0.5002117012878016  1.0000
  N   N4        1.0  0.7817632516805977  0.6155186289886182  0.49978829884943826  1.0000
  N   N5        1.0  0.2555323166312771  0.8222118028353235  0.3176515703142633  1.0000
  N   N6        1.0  0.7444676833696436  0.17778819635651827  0.6823484296969553  1.0000
  N   N7        1.0  0.7630634477654895  0.5387301262028378  0.025347942027108123  1.0000
  N   N8        1.0  0.23693655257370055  0.46126987420082854  0.9746520581101318  1.0000
  N   N9        1.0  0.9703811522764302  0.13116516314234047  0.1486144492769829  1.0000
  N   N10       1.0  0.029618848062759866  0.8688348372613256  0.8513855508602569  1.0000
  O   O1        1.0  0.430572957405002  0.5654497051218114  0.7982973693634147  1.0000
  O   O2        1.0  0.5694270425959187  0.4345502940700303  0.2017026306478039  1.0000
  O   O3        1.0  0.3882197857913828  0.6419949888300438  0.6903319540518884  1.0000
  O   O4        1.0  0.6117802145557212  0.3580050115708922  0.3096680455471659  1.0000
  O   O5        1.0  0.6833484121160093  0.5682314703862339  0.9678831580928843  1.0000
  O   O6        1.0  0.3166515878849115  0.4317685288056078  0.032116841918334305  1.0000
  O   O7        1.0  0.837198846115685  0.6422160859212156  0.08356826903528052  1.0000
  O   O8        1.0  0.16280115422350508  0.3577839144824506  0.9164317311019594  1.0000
  O   O9        1.0  0.028218818869861904  0.23965703953852913  0.20624585904361317  1.0000
  O   O10       1.0  0.9717811811310588  0.7603429596533126  0.7937541409676054  1.0000
  O   O11       1.0  0.9872998710990951  0.9896982190228848  0.1426608322147777  1.0000
  O   O12       1.0  0.012700129240095065  0.010301781380781503  0.8573391679224621  1.0000
  O   O13       1.0  0.4769156212027859  0.9963956392136025  0.8398556119583382  1.0000
  O   O14       1.0  0.5230843791364042  0.003604361190063756  0.16014438817890156  1.0000
  O   O15       1.0  0.6182753097184986  0.8193334753798375  0.8913591077705544  1.0000
  O   O16       1.0  0.38172468915777924  0.18066652502164265  0.10864089230146376  1.0000
