data_image0
_chemical_formula_structural       H60C96N12O4F8S16
_chemical_formula_sum              "H60 C96 N12 O4 F8 S16"
_cell_length_a       8.932302752936101
_cell_length_b       10.92295198733293
_cell_length_c       23.88619801839959
_cell_angle_alpha    100.22271394446139
_cell_angle_beta     99.70787201273205
_cell_angle_gamma    93.88770540766058

_space_group_name_H-M_alt    "P 1"
_space_group_IT_number       1

loop_
  _space_group_symop_operation_xyz
  'x, y, z'

loop_
  _atom_site_type_symbol
  _atom_site_label
  _atom_site_symmetry_multiplicity
  _atom_site_fract_x
  _atom_site_fract_y
  _atom_site_fract_z
  _atom_site_occupancy
  H   H1        1.0  0.2041504948050947  0.1141256870458713  0.351784212155312  1.0000
  H   H2        1.0  0.795849504500985  0.8858743129361235  0.648215788146558  1.0000
  H   H3        1.0  0.15893937113361084  0.09241593302954103  0.41979383636120876  1.0000
  H   H4        1.0  0.8410606293129845  0.907584066954784  0.5802061635957584  1.0000
  H   H5        1.0  0.020591067895131772  0.04247819669010085  0.3547563389788943  1.0000
  H   H6        1.0  0.979408931415673  0.9575218032942002  0.6452436609048136  1.0000
  H   H7        1.0  0.6129106646928745  0.34154213056094884  0.639339775674719  1.0000
  H   H8        1.0  0.387089335753721  0.658457869423376  0.3606602242822482  1.0000
  H   H9        1.0  0.5792999735390387  0.43924885514834894  0.5871729420322417  1.0000
  H   H10       1.0  0.420700025771766  0.5607511448359521  0.4128270578514662  1.0000
  H   H11       1.0  0.5152970601689547  0.4785459003348861  0.6548513565990178  1.0000
  H   H12       1.0  0.4847029402729157  0.5214540996471323  0.3451486437761115  1.0000
  H   H13       1.0  0.7686093771500055  0.1395461368209657  0.2673294927298573  1.0000
  H   H14       1.0  0.23139062215607423  0.8604538631610289  0.7326705075720128  1.0000
  H   H15       1.0  0.8896312672751099  0.1345948818711012  0.2152117864665138  1.0000
  H   H16       1.0  0.11036873203569489  0.8654051181131998  0.7847882134171941  1.0000
  H   H17       1.0  0.90147528196335  0.35154281323653075  0.27558242709861797  1.0000
  H   H18       1.0  0.09852471734745469  0.6484571867477703  0.72441757278509  1.0000
  H   H19       1.0  0.6999994929750502  0.3540445170548235  0.24993885977761582  1.0000
  H   H20       1.0  0.3000005074715453  0.6459554829295013  0.7500611401793512  1.0000
  H   H21       1.0  0.6383790364827733  0.4145342490306759  0.7644940771626932  1.0000
  H   H22       1.0  0.36162096282330647  0.5854657509513186  0.23550592313917687  1.0000
  H   H23       1.0  0.6999604719215243  0.3728057798953551  0.832591805725644  1.0000
  H   H24       1.0  0.3000395285250711  0.6271942200889697  0.16740819423132328  1.0000
  H   H25       1.0  0.9479701519316589  0.16570878686253776  0.7669795832522512  1.0000
  H   H26       1.0  0.05202984851493644  0.8342912131217871  0.233020416704716  1.0000
  H   H27       1.0  0.032472203186579104  0.30266728503131757  0.8182543775884606  1.0000
  H   H28       1.0  0.9675277972600163  0.6973327149530072  0.18174562236850658  1.0000
  H   H29       1.0  0.7001150063107371  0.18728330507515323  0.7570259723651604  1.0000
  H   H30       1.0  0.2998849941358583  0.8127166949091715  0.24297402759180659  1.0000
  H   H31       1.0  0.5490547427646371  0.15980178300759001  0.7948393425465915  1.0000
  H   H32       1.0  0.4509452576772333  0.8401982169744283  0.20516065782853787  1.0000
  H   H33       1.0  0.9651410816459263  0.33124081956631296  0.713881088727498  1.0000
  H   H34       1.0  0.034858917664878364  0.6687591804179882  0.28611891115620985  1.0000
  H   H35       1.0  0.1607982695259001  0.38115156416244883  0.7470335580177674  1.0000
  H   H36       1.0  0.8392017297849046  0.6188484358218522  0.25296644186594036  1.0000
  H   H37       1.0  0.040670553587610736  0.41967069867055035  0.6495919790027765  1.0000
  H   H38       1.0  0.959329445723194  0.5803293013137507  0.3504080208809313  1.0000
  H   H39       1.0  0.11543245304254018  0.48722578252281495  0.565268603219015  1.0000
  H   H40       1.0  0.8845675474040553  0.51277421746151  0.43473139673795225  1.0000
  H   H41       1.0  0.26385519402179547  0.4606781543148187  0.485070822507571  1.0000
  H   H42       1.0  0.7361448064248  0.5393218456695063  0.5149291774493961  1.0000
  H   H43       1.0  0.44445899624466556  0.34324543363517274  0.43290585485190963  1.0000
  H   H44       1.0  0.5555410042019299  0.6567545663491521  0.5670941451050575  1.0000
  H   H45       1.0  0.5463176945480359  0.15690778007417733  0.4663893243631297  1.0000
  H   H46       1.0  0.4536823047627689  0.843092219910124  0.5336106755205782  1.0000
  H   H47       1.0  0.4662612501635333  0.08425586476113182  0.5496901896965507  1.0000
  H   H48       1.0  0.5337387491472716  0.9157441352231692  0.45030981018715716  1.0000
  H   H49       1.0  0.12128453475297193  0.020365843685732955  0.5315168372745505  1.0000
  H   H50       1.0  0.8787154656936236  0.9796341562985921  0.4684831626824168  1.0000
  H   H51       1.0  0.02664385559082024  0.8092204584940836  0.474491646652718  1.0000
  H   H52       1.0  0.9733561448557753  0.19077954149024118  0.5255083533042492  1.0000
  H   H53       1.0  0.10789590153103314  0.6207602363905654  0.5101846952069046  1.0000
  H   H54       1.0  0.8921040989155623  0.37923976359375944  0.4898153047500626  1.0000
  H   H55       1.0  0.29491401309685716  0.6423100862121351  0.6028187727396003  1.0000
  H   H56       1.0  0.7050859873450132  0.3576899137698831  0.39718122763552915  1.0000
  H   H57       1.0  0.4727415474804126  0.776958164380354  0.6846927772078502  1.0000
  H   H58       1.0  0.5272584518303922  0.22304183560394708  0.3153072226758576  1.0000
  H   H59       1.0  0.576833074585289  0.9864098526697925  0.7391670546318125  1.0000
  H   H60       1.0  0.42316692586130633  0.013590147314532336  0.26083294532515466  1.0000
  C   C1        1.0  0.1989579805687319  0.929995819070881  0.3651246075078877  1.0000
  C   C2        1.0  0.8010420187420728  0.07000418091342005  0.6348753923758201  1.0000
  C   C3        1.0  0.14271079813846557  0.05191159789712392  0.3735014559876822  1.0000
  C   C4        1.0  0.8572892011723393  0.9480884020871773  0.6264985438960257  1.0000
  C   C5        1.0  0.7504931566420106  0.5107555412719009  0.6594504719599009  1.0000
  C   C6        1.0  0.24950684380458496  0.48924445871242395  0.3405495279970661  1.0000
  C   C7        1.0  0.6058901327392262  0.4388486963671915  0.6337323004086917  1.0000
  C   C8        1.0  0.39410986770736917  0.5611513036171335  0.3662676995482755  1.0000
  C   C9        1.0  0.5448678323125253  0.2544112997558832  0.02375401000887894  1.0000
  C   C10       1.0  0.45513216699827935  0.7455887002284179  0.9762459898748289  1.0000
  C   C11       1.0  0.624829959194499  0.19132490684155526  0.1226776911663542  1.0000
  C   C12       1.0  0.3751700401163057  0.8086750931427459  0.8773223087173537  1.0000
  C   C13       1.0  0.7886304826075361  0.17388631355910864  0.22841480077832754  1.0000
  C   C14       1.0  0.21136951670326862  0.8261136864251925  0.7715851991053803  1.0000
  C   C15       1.0  0.8048865274568111  0.31532107923576974  0.24002262235758015  1.0000
  C   C16       1.0  0.19511347298978438  0.6846789207485552  0.7599773775993869  1.0000
  C   C17       1.0  0.7187337916541071  0.29905235562741356  0.12428076187415299  1.0000
  C   C18       1.0  0.2812662087924883  0.7009476443569114  0.8757192380828143  1.0000
  C   C19       1.0  0.47437979826978943  0.26348858016661214  0.9683422961989883  1.0000
  C   C20       1.0  0.525620202176806  0.7365114198177127  0.031657703757978814  1.0000
  C   C21       1.0  0.4134491873176612  0.32853229903864517  0.8684588575828645  1.0000
  C   C22       1.0  0.5865508119931435  0.6714677009456559  0.13154114230084335  1.0000
  C   C23       1.0  0.3148471006929424  0.22407337071959071  0.8645063919882109  1.0000
  C   C24       1.0  0.6851528997536529  0.775926629264734  0.13549360796875626  1.0000
  C   C25       1.0  0.6092896329067047  0.35411529437485806  0.7940604209500616  1.0000
  C   C26       1.0  0.3907103675398907  0.6458847056094669  0.2059395790069056  1.0000
  C   C27       1.0  0.04886773643193771  0.23472048865807596  0.7806018447475644  1.0000
  C   C28       1.0  0.9511322628741421  0.7652795113239186  0.21939815555430559  1.0000
  C   C29       1.0  0.5896480174315164  0.21736499439295964  0.7659087388221897  1.0000
  C   C30       1.0  0.4103519830103541  0.7826350055890586  0.23409126155293972  1.0000
  C   C31       1.0  0.07491131945521623  0.3000750307753735  0.7318492968951005  1.0000
  C   C32       1.0  0.9250886809913792  0.6999249692089513  0.2681507030618667  1.0000
  C   C33       1.0  0.171462463929754  0.2578995777238544  0.6438420696849313  1.0000
  C   C34       1.0  0.8285375353810508  0.7421004222604467  0.3561579301987767  1.0000
  C   C35       1.0  0.11824993284368386  0.3671115105408056  0.6265615262929186  1.0000
  C   C36       1.0  0.8817500676029115  0.6328884894435193  0.37343847366404853  1.0000
  C   C37       1.0  0.16061012078948483  0.4050380270149052  0.578991918199621  1.0000
  C   C38       1.0  0.8393898796523855  0.5949619729671131  0.42100808217550834  1.0000
  C   C39       1.0  0.2596209557261805  0.33853869313611573  0.5471800794793334  1.0000
  C   C40       1.0  0.7403790447156899  0.6614613068459027  0.45281992089579587  1.0000
  C   C41       1.0  0.3069676896122269  0.3774958737946082  0.4987012365609399  1.0000
  C   C42       1.0  0.6930323108343684  0.6225041261897167  0.5012987633960273  1.0000
  C   C43       1.0  0.4073944392379924  0.3126174536094092  0.46986401490797514  1.0000
  C   C44       1.0  0.592605561208603  0.6873825463749157  0.5301359850489921  1.0000
  C   C45       1.0  0.46463749778368735  0.2061079379702197  0.4885605658280624  1.0000
  C   C46       1.0  0.5353625015271174  0.7938920620140815  0.5114394340556454  1.0000
  C   C47       1.0  0.419577027225225  0.16496376435065388  0.534974378540609  1.0000
  C   C48       1.0  0.5804229720855798  0.835036235633647  0.46502562134309877  1.0000
  C   C49       1.0  0.3153911979121552  0.22887720448216348  0.5654559102065526  1.0000
  C   C50       1.0  0.6846088025344402  0.7711227955021615  0.43454408975041453  1.0000
  C   C51       1.0  0.2686706936006423  0.18864071878182848  0.6139759768894325  1.0000
  C   C52       1.0  0.7313293068459532  0.8113592812024963  0.3860240230675346  1.0000
  C   C53       1.0  0.3226262773287277  0.07466008810610081  0.6330768490470947  1.0000
  C   C54       1.0  0.6773737231178678  0.925339911878224  0.3669231509098725  1.0000
  C   C55       1.0  0.26524623315314255  0.953983517444945  0.600091590981283  1.0000
  C   C56       1.0  0.7347537672934529  0.046016482539379726  0.39990840897568414  1.0000
  C   C57       1.0  0.15890271263889374  0.9377539940779377  0.5471378531292245  1.0000
  C   C58       1.0  0.8410972866719111  0.06224600590636359  0.45286214675448344  1.0000
  C   C59       1.0  0.1055492987490974  0.8202282897380685  0.5155739708513984  1.0000
  C   C60       1.0  0.8944507005617075  0.1797717102462326  0.4844260290323094  1.0000
  C   C61       1.0  0.15295393305318722  0.7125793687469759  0.5359146342336708  1.0000
  C   C62       1.0  0.8470460673934082  0.287420631237349  0.46408536572329634  1.0000
  C   C63       1.0  0.2559984048459348  0.7245476865624371  0.586982959222848  1.0000
  C   C64       1.0  0.7440015956006606  0.2754523134218878  0.41301704073411916  1.0000
  C   C65       1.0  0.31671451753422314  0.8442683841333221  0.6196635133134726  1.0000
  C   C66       1.0  0.6832854817765815  0.15573161585097903  0.3803364865702354  1.0000
  C   C67       1.0  0.42999885839838015  0.8595567626682161  0.6702443066518422  1.0000
  C   C68       1.0  0.5700011409076996  0.14044323731377842  0.3297556936500278  1.0000
  C   C69       1.0  0.4870415958852012  0.9770177821566772  0.7013728851164295  1.0000
  C   C70       1.0  0.5129584034256036  0.02298221782762395  0.2986271147672783  1.0000
  C   C71       1.0  0.4314362875418042  0.08493322029185739  0.6834597939709028  1.0000
  C   C72       1.0  0.5685637117690006  0.9150667796924437  0.316540205912805  1.0000
  C   C73       1.0  0.993594040859448  0.23272493388874235  0.004432134633677097  1.0000
  C   C74       1.0  0.006405958451356856  0.7672750660955587  0.9955678652500307  1.0000
  C   C75       1.0  0.9485771933927893  0.1410004249784435  0.03509657201132366  1.0000
  C   C76       1.0  0.0514228070538062  0.8589995750058813  0.9649034279456435  1.0000
  C   C77       1.0  0.02257091232795516  0.1322621723468822  0.08951974967237776  1.0000
  C   C78       1.0  0.9774290869828497  0.867737827637419  0.9104802502113302  1.0000
  C   C79       1.0  0.15088340271473985  0.2147401273899466  0.12041663414910701  1.0000
  C   C80       1.0  0.849116596596065  0.7852598725943545  0.8795833657346009  1.0000
  C   C81       1.0  0.1975677904820336  0.30471224966139265  0.0892231924168801  1.0000
  C   C82       1.0  0.8024322099598368  0.6952877503206257  0.9107768079582493  1.0000
  C   C83       1.0  0.12405245674151802  0.3133931786613931  0.034756164487403415  1.0000
  C   C84       1.0  0.8759475437050773  0.6866068213229317  0.9652438354695637  1.0000
  C   C85       1.0  0.2238921716412063  0.20932667614648884  0.17791267765106109  1.0000
  C   C86       1.0  0.7761078276648734  0.7906733238355056  0.822087322650809  1.0000
  C   C87       1.0  0.341348363315479  0.2978225087932779  0.21150433764782772  1.0000
  C   C88       1.0  0.6586516371311165  0.702177491191047  0.7884956623091396  1.0000
  C   C89       1.0  0.18096323460189084  0.11643731543067343  0.20778409873964557  1.0000
  C   C90       1.0  0.8190367658447046  0.8835626845536514  0.7922159012173215  1.0000
  C   C91       1.0  0.9132501836343452  0.24486945370592336  0.9487397419112628  1.0000
  C   C92       1.0  0.0867498168122503  0.7551305462784015  0.05126025804570448  1.0000
  C   C93       1.0  0.78899552640173  0.16018944642810656  0.9171747069394985  1.0000
  C   C94       1.0  0.2110044729090748  0.8398105535561943  0.0828252929442092  1.0000
  C   C95       1.0  0.9502285370958512  0.34443046388518694  0.9216641459729327  1.0000
  C   C96       1.0  0.04977146335074409  0.6555695360991379  0.07833585398403446  1.0000
  N   N1        1.0  0.24312976446019752  0.8314707834412132  0.3581226780348826  1.0000
  N   N2        1.0  0.7568702348506073  0.16852921654308792  0.6418773218488252  1.0000
  N   N3        1.0  0.8679706240826442  0.5672905653643996  0.6804432554996163  1.0000
  N   N4        1.0  0.13202937635922624  0.4327094346176187  0.31955674487551317  1.0000
  N   N5        1.0  0.43875391631299593  0.3671191534817647  0.24280319809774317  1.0000
  N   N6        1.0  0.5612460841288743  0.6328808465002536  0.7571968022773862  1.0000
  N   N7        1.0  0.15087701213918983  0.04284357260394355  0.23551722481042997  1.0000
  N   N8        1.0  0.8491229883074055  0.9571564273803813  0.7644827751465373  1.0000
  N   N9        1.0  0.6839842497401044  0.09276055451110783  0.8896740780663772  1.0000
  N   N10       1.0  0.31601574957070055  0.9072394454731932  0.11032592181733057  1.0000
  N   N11       1.0  0.9755714157965992  0.42531680808559824  0.8970136674331538  1.0000
  N   N12       1.0  0.02442858351420565  0.5746831918987029  0.10298633245055398  1.0000
  O   O1        1.0  0.48223060805362106  0.2029669025394503  0.7129163234154183  1.0000
  O   O2        1.0  0.5177693923929744  0.7970330974448746  0.28708367654154887  1.0000
  O   O3        1.0  0.12713418084467837  0.21283822372899372  0.6889635352345758  1.0000
  O   O4        1.0  0.8728658184661264  0.7871617762553074  0.31103646464913204  1.0000
  F   F1        1.0  0.18161306828373291  0.4032661995854156  0.009502969663761122  1.0000
  F   F2        1.0  0.8183869321628625  0.5967338003989092  0.990497030293206  1.0000
  F   F3        1.0  0.32175632472431326  0.3868277233945934  0.11359951717377488  1.0000
  F   F4        1.0  0.6782436757222822  0.6131722765897315  0.8864004827831924  1.0000
  F   F5        1.0  0.9649900198508843  0.04220117001651769  0.11462339484554242  1.0000
  F   F6        1.0  0.035009980595711254  0.9577988299678072  0.8853766051114247  1.0000
  F   F7        1.0  0.8237670651956894  0.05858285793400631  0.010981990032372897  1.0000
  F   F8        1.0  0.17623293411511537  0.9414171420502948  0.9890180098513349  1.0000
  S   S1        1.0  0.493604265284293  0.1373584943962169  0.05890596637299838  1.0000
  S   S2        1.0  0.5063957351623023  0.8626415055881079  0.9410940335839687  1.0000
  S   S3        1.0  0.6209551378228735  0.10291632920114921  0.17565587994571047  1.0000
  S   S4        1.0  0.37904486261899695  0.8970836707808693  0.824344120429419  1.0000
  S   S5        1.0  0.8601113724326525  0.37749358712826625  0.1802891390216447  1.0000
  S   S6        1.0  0.13988862801394292  0.6225064128560586  0.8197108609353224  1.0000
  S   S7        1.0  0.6894854100718799  0.3643802559799598  0.06289764416759204  1.0000
  S   S8        1.0  0.3105145892389248  0.6356197440043413  0.9371023557161158  1.0000
  S   S9        1.0  0.5290977595161129  0.38412360494121045  0.9359280036023406  1.0000
  S   S10       1.0  0.47090223979469203  0.6158763950430907  0.06407199628136714  1.0000
  S   S11       1.0  0.4325487070296167  0.4095839684777772  0.8132853592882222  1.0000
  S   S12       1.0  0.5674512922811881  0.5904160315065239  0.1867146405954855  1.0000
  S   S13       1.0  0.19485905077633991  0.13588856582311173  0.8037899480541889  1.0000
  S   S14       1.0  0.8051409485344647  0.8641114341611895  0.19621005182951898  1.0000
  S   S15       1.0  0.32476096374113034  0.16055025614276566  0.9270666557477134  1.0000
  S   S16       1.0  0.6752390367007399  0.8394497438392526  0.07293334462741605  1.0000
