data_image0
_chemical_formula_structural       H28C60N8F12Cl4Br4
_chemical_formula_sum              "H28 C60 N8 F12 Cl4 Br4"
_cell_length_a       9.709203249266597
_cell_length_b       10.482404200672027
_cell_length_c       13.386650645356001
_cell_angle_alpha    87.66898864597688
_cell_angle_beta     87.40492125714513
_cell_angle_gamma    88.8825998498844

_space_group_name_H-M_alt    "P 1"
_space_group_IT_number       1

loop_
  _space_group_symop_operation_xyz
  'x, y, z'

loop_
  _atom_site_type_symbol
  _atom_site_label
  _atom_site_symmetry_multiplicity
  _atom_site_fract_x
  _atom_site_fract_y
  _atom_site_fract_z
  _atom_site_occupancy
  H   H1        1.0  0.9304637555521229  0.06285352587510083  0.0659638218313251  1.0000
  H   H2        1.0  0.0695362449617579  0.9371464743912322  0.9340361780991588  1.0000
  H   H3        1.0  0.709902010469633  0.319931377724984  0.2633318897220171  1.0000
  H   H4        1.0  0.2900979890373494  0.6800686215840955  0.736668110212423  1.0000
  H   H5        1.0  0.9315568984351831  0.2794759875243805  0.5577002868844173  1.0000
  H   H6        1.0  0.06844310210178846  0.7205240117876878  0.4422997130482781  1.0000
  H   H7        1.0  0.06424967826239825  0.23816629512038887  0.6603386260948141  1.0000
  H   H8        1.0  0.9357503212445841  0.7618337041886907  0.3396613738396257  1.0000
  H   H9        1.0  0.2310105848099668  0.1829699363507559  0.7878220977095296  1.0000
  H   H10       1.0  0.7689894146739249  0.8170300639125885  0.21217790222269894  1.0000
  H   H11       1.0  0.4547877560282897  0.9389469784465477  0.5840666114593449  1.0000
  H   H12       1.0  0.5452122445086817  0.06105302086552046  0.4159333884733505  1.0000
  H   H13       1.0  0.2847056615642036  0.9938799728596968  0.45333768210358233  1.0000
  H   H14       1.0  0.7152943379196883  0.006120027403647322  0.5466623178286462  1.0000
  H   H15       1.0  0.40501668692400583  0.21028654731544  0.20517384975229894  1.0000
  H   H16       1.0  0.5949833136129656  0.7897134519966281  0.7948261501803965  1.0000
  H   H17       1.0  0.07530261444667027  0.3946687036029277  0.042932653882605726  1.0000
  H   H18       1.0  0.9246973860672105  0.6053312966634055  0.9570673460478784  1.0000
  H   H19       1.0  0.15515060578249174  0.520241046453468  0.516479898264737  1.0000
  H   H20       1.0  0.844849394731389  0.47975895381286515  0.48352010166574705  1.0000
  H   H21       1.0  0.26587180936783084  0.5024256795409451  0.6318521119255309  1.0000
  H   H22       1.0  0.734128190116061  0.4975743207223992  0.3681478880066976  1.0000
  H   H23       1.0  0.4048860630972909  0.47489848456102673  0.7808672820120993  1.0000
  H   H24       1.0  0.5951139364096915  0.5251015147480527  0.2191327179223406  1.0000
  H   H25       1.0  0.6891102528360825  0.2278664402454496  0.621023070061138  1.0000
  H   H26       1.0  0.3108897476777984  0.7721335600208835  0.378976929869346  1.0000
  H   H27       1.0  0.5499038837859659  0.2562654032324009  0.46983519391214584  1.0000
  H   H28       1.0  0.4500961156979259  0.7437345970309435  0.5301648060200828  1.0000
  C   C1        1.0  0.9909025078934163  0.12324508957296564  0.3096020543762684  1.0000
  C   C2        1.0  0.009097491590475716  0.8767549106903786  0.69039794555596  1.0000
  C   C3        1.0  0.00418804672153182  0.06716033569206105  0.21431662424275214  1.0000
  C   C4        1.0  0.9958119538154396  0.9328396636200071  0.7856833756899432  1.0000
  C   C5        1.0  0.9185756211006401  0.10497263210382232  0.1389008862524026  1.0000
  C   C6        1.0  0.08142437941324097  0.8950273681625108  0.8610991136780815  1.0000
  C   C7        1.0  0.8140635309347858  0.1985829598599888  0.1561634615623745  1.0000
  C   C8        1.0  0.18593646957909513  0.8014170404063442  0.8438365383681095  1.0000
  C   C9        1.0  0.7924005309922445  0.2507697652059738  0.24849148378541322  1.0000
  C   C10       1.0  0.20759946851473798  0.7492302341031056  0.7515085161490267  1.0000
  C   C11       1.0  0.8806890655670825  0.21407858498581855  0.32583219727416535  1.0000
  C   C12       1.0  0.11931093391680922  0.7859214152775258  0.6741678026580632  1.0000
  C   C13       1.0  0.948233143415562  0.2346570980013747  0.4859107587352805  1.0000
  C   C14       1.0  0.05176685712140958  0.7653429013106935  0.5140892411974148  1.0000
  C   C15       1.0  0.062179048307383133  0.1480431050259519  0.46929200791372516  1.0000
  C   C16       1.0  0.9378209522064977  0.8519568952403812  0.5307079920167589  1.0000
  C   C17       1.0  0.16174287163417406  0.11834823053192818  0.5469288532008181  1.0000
  C   C18       1.0  0.8382571288797067  0.881651769734405  0.4530711467296659  1.0000
  C   C19       1.0  0.14840323173205472  0.17211803988076022  0.6414589988869286  1.0000
  C   C20       1.0  0.8515967677749278  0.8278819594283191  0.35854100104751124  1.0000
  C   C21       1.0  0.2424460298190364  0.14209745641402846  0.7144673616463909  1.0000
  C   C22       1.0  0.7575539696648554  0.8579025438493159  0.2855326382858376  1.0000
  C   C23       1.0  0.35216317314349976  0.05828297774922728  0.6930932235184932  1.0000
  C   C24       1.0  0.6478368273703812  0.9417170225171058  0.30690677641199077  1.0000
  C   C25       1.0  0.3682979569392703  0.003974127463799773  0.5993658487082376  1.0000
  C   C26       1.0  0.6317020425446215  0.9960258727995445  0.4006341512239909  1.0000
  C   C27       1.0  0.27366470673030163  0.03436761520845326  0.5270131694696636  1.0000
  C   C28       1.0  0.7263352927535903  0.9656323850548911  0.472986830462565  1.0000
  C   C29       1.0  0.7313822958726547  0.24391743830721585  0.06920507747979342  1.0000
  C   C30       1.0  0.2686177046412261  0.7560825619591174  0.9307949224506906  1.0000
  C   C31       1.0  0.276065342258322  0.34278862147397754  0.2878958471748905  1.0000
  C   C32       1.0  0.7239346572255698  0.6572113787893668  0.7121041527573382  1.0000
  C   C33       1.0  0.31671642132032773  0.27545821170004464  0.20141931698088086  1.0000
  C   C34       1.0  0.6832835791935531  0.7245417885662884  0.7985806829496032  1.0000
  C   C35       1.0  0.244226732585128  0.294662360538073  0.11571966808902445  1.0000
  C   C36       1.0  0.755773267928753  0.70533763972826  0.8842803318414596  1.0000
  C   C37       1.0  0.1298144631766916  0.38029935934502956  0.1119404866688088  1.0000
  C   C38       1.0  0.8701855373602797  0.6197006399670385  0.8880595132638867  1.0000
  C   C39       1.0  0.08847264001214045  0.44495588353553356  0.19589649175673485  1.0000
  C   C40       1.0  0.9115273605017403  0.5550441167307996  0.8041035081737492  1.0000
  C   C41       1.0  0.1583786230446812  0.42772049039046944  0.28659295162305165  1.0000
  C   C42       1.0  0.8416213764392105  0.5722795098728748  0.7134070483091769  1.0000
  C   C43       1.0  0.19066703558770112  0.4708300729179178  0.44976248961287846  1.0000
  C   C44       1.0  0.8093329639192813  0.5291699263911618  0.5502375103215614  1.0000
  C   C45       1.0  0.31247762984953054  0.3911057807823139  0.45095800312460177  1.0000
  C   C46       1.0  0.6875223696343613  0.6088942194810304  0.5490419968076268  1.0000
  C   C47       1.0  0.39598202247610087  0.3781778791599279  0.5400792895381513  1.0000
  C   C48       1.0  0.6040179770077909  0.6218221211034164  0.45992071039407717  1.0000
  C   C49       1.0  0.35770028442788954  0.4413032393649896  0.6279951866477703  1.0000
  C   C50       1.0  0.6422997160859913  0.5586967609013435  0.3720048132827137  1.0000
  C   C51       1.0  0.4355750438411881  0.42707313758791476  0.7124622613685715  1.0000
  C   C52       1.0  0.5644249556427037  0.5729268626754296  0.287537738563657  1.0000
  C   C53       1.0  0.5539734952200395  0.34939363015769154  0.7095809545091678  1.0000
  C   C54       1.0  0.4460265052938413  0.6506063701086416  0.2904190454213162  1.0000
  C   C55       1.0  0.5959138103971426  0.28743504936601694  0.6224682406260368  1.0000
  C   C56       1.0  0.4040861901167382  0.7125649509003161  0.3775317593044472  1.0000
  C   C57       1.0  0.5171081884200555  0.30229173157956574  0.5385575107960705  1.0000
  C   C58       1.0  0.4828918120938255  0.6977082686867673  0.46144248913441344  1.0000
  C   C59       1.0  0.28551375571634746  0.2276606142394312  0.021441115388947204  1.0000
  C   C60       1.0  0.7144862447975334  0.7723393860269019  0.9785588845415368  1.0000
  N   N1        1.0  0.08001300523216992  0.09245976638426887  0.38194519377919645  1.0000
  N   N2        1.0  0.9199869942748125  0.9075402329248107  0.6180548061552433  1.0000
  N   N3        1.0  0.860882580045145  0.26745890317975496  0.4167642967600796  1.0000
  N   N4        1.0  0.13911741943874684  0.7325410970835894  0.583235703172149  1.0000
  N   N5        1.0  0.35175191017656277  0.3268406316710572  0.37061931170403  1.0000
  N   N6        1.0  0.6482480893304197  0.6731593676380222  0.6293806882304098  1.0000
  N   N7        1.0  0.11641110620529806  0.4897787181068839  0.3703576431785081  1.0000
  N   N8        1.0  0.8835888932785937  0.5102212821564605  0.6296423567537204  1.0000
  F   F1        1.0  0.6844418636820988  0.145552107223861  0.017597263068250126  1.0000
  F   F2        1.0  0.3155581368548727  0.8544478920882072  0.9824027368644452  1.0000
  F   F3        1.0  0.8110637104452398  0.31715819163017367  0.0019411858232867105  1.0000
  F   F4        1.0  0.188936290068641  0.6828418086361595  0.9980588141071973  1.0000
  F   F5        1.0  0.6201750341684445  0.3180880235901193  0.09673528819394657  1.0000
  F   F6        1.0  0.3798249663454362  0.6819119766762137  0.9032647117365374  1.0000
  F   F7        1.0  0.38177881310438583  0.13424503925393036  0.03488574570407127  1.0000
  F   F8        1.0  0.6182211863795061  0.8657549610094138  0.9651142542281573  1.0000
  F   F9        1.0  0.17382539445588846  0.17275524217676202  0.9811422612194033  1.0000
  F   F10       1.0  0.826174605051094  0.8272447571323173  0.01885773871503665  1.0000
  F   F11       1.0  0.3373721927975818  0.3117620236734453  0.9484869359865916  1.0000
  F   F12       1.0  0.6626278067094006  0.688237975635634  0.05151306394784836  1.0000
  Cl  Cl1       1.0  0.47009282760021953  0.022663101632110435  0.7830844584820351  1.0000
  Cl  Cl2       1.0  0.5299071718400874  0.9773368985960182  0.21691554219856204  1.0000
  Cl  Cl3       1.0  0.6495482634900552  0.3312544265466724  0.8148325466541357  1.0000
  Cl  Cl4       1.0  0.3504517370238257  0.6687455737196607  0.1851674532763483  1.0000
  Br  Br1       1.0  0.139765232457845  0.9381668123763885  0.19254252012021422  1.0000
  Br  Br2       1.0  0.8602347670260468  0.06183318788695577  0.8074574798120143  1.0000
  Br  Br3       1.0  0.9372205746601172  0.5618146296274066  0.1881116488690415  1.0000
  Br  Br4       1.0  0.06277942484686526  0.43818536968167277  0.8118883510653985  1.0000
