data_image0
_chemical_formula_structural       H16C48N4F28S4I8
_chemical_formula_sum              "H16 C48 N4 F28 S4 I8"
_cell_length_a       8.126926488258546
_cell_length_b       13.406498033570161
_cell_length_c       14.281825336008486
_cell_angle_alpha    99.35198798453396
_cell_angle_beta     95.54326522288098
_cell_angle_gamma    93.42787134058402

_space_group_name_H-M_alt    "P 1"
_space_group_IT_number       1

loop_
  _space_group_symop_operation_xyz
  'x, y, z'

loop_
  _atom_site_type_symbol
  _atom_site_label
  _atom_site_symmetry_multiplicity
  _atom_site_fract_x
  _atom_site_fract_y
  _atom_site_fract_z
  _atom_site_occupancy
  H   H1        1.0  0.2143297401168635  0.054874979799064055  0.7944960650177211  1.0000
  H   H2        1.0  0.7856702594544998  0.9451250206307552  0.20550393466385028  1.0000
  H   H3        1.0  0.3336012450161846  0.8146966546339187  0.589622742910156  1.0000
  H   H4        1.0  0.6663987557113352  0.18530334504827564  0.4103772567710258  1.0000
  H   H5        1.0  0.3022841347397236  0.9244193740885811  0.4670756703358166  1.0000
  H   H6        1.0  0.6977158648879416  0.07558062571998252  0.5329243300575626  1.0000
  H   H7        1.0  0.1800806169979426  0.16387937492964186  0.6849102784560392  1.0000
  H   H8        1.0  0.8199193839350494  0.8361206256264911  0.31508972194091117  1.0000
  H   H9        1.0  0.7291679299102318  0.050075001591506324  0.0673764383382958  1.0000
  H   H10       1.0  0.2708320709481751  0.9499249982170294  0.9326235620566742  1.0000
  H   H11       1.0  0.6830996689952392  0.15468188436882815  0.954941439980715  1.0000
  H   H12       1.0  0.31690033057612393  0.8453181160609912  0.045058559700856225  1.0000
  H   H13       1.0  0.84315962297343  0.80576083817552  0.8631734453676438  1.0000
  H   H14       1.0  0.1568403765233482  0.194239161506702  0.13682655431194712  1.0000
  H   H15       1.0  0.8014807169768071  0.9117464293260413  0.7384338468887973  1.0000
  H   H16       1.0  0.1985192838252978  0.08825357110375008  0.2615661527943649  1.0000
  C   C1        1.0  0.1737939195527652  0.5602831766819901  0.8993834460156086  1.0000
  C   C2        1.0  0.826206080149485  0.4397168238741707  0.10061655437975094  1.0000
  C   C3        1.0  0.3468778775406313  0.5630102689706005  0.8996392520966181  1.0000
  C   C4        1.0  0.6531221220870338  0.43698973083796316  0.10036074829676109  1.0000
  C   C5        1.0  0.4173314716534883  0.4801189751544862  0.8508663958809077  1.0000
  C   C6        1.0  0.5826685290740314  0.5198810245277079  0.1491336038002741  1.0000
  C   C7        1.0  0.07668548692780065  0.47515701513618097  0.8496680034472511  1.0000
  C   C8        1.0  0.9233145125689775  0.5248429845460412  0.1503319962323398  1.0000
  C   C9        1.0  0.14848692728678362  0.3922896403035443  0.8025572062522285  1.0000
  C   C10       1.0  0.8515130723408815  0.6077103595050195  0.19744279414115076  1.0000
  C   C11       1.0  0.31968756519698854  0.39473979659360675  0.8030229322022412  1.0000
  C   C12       1.0  0.6803124357360034  0.6052602039625262  0.19697706819470925  1.0000
  C   C13       1.0  0.8411991926275006  0.5460530667157537  0.6342662695300851  1.0000
  C   C14       1.0  0.15880080686927733  0.45394693296646826  0.3657337301495058  1.0000
  C   C15       1.0  0.6686030000948591  0.5446737567190222  0.6370282675751746  1.0000
  C   C16       1.0  0.3313969994765043  0.4553262437107971  0.3629717321063966  1.0000
  C   C17       1.0  0.9116715604708753  0.4551549017234091  0.6049047547275814  1.0000
  C   C18       1.0  0.08832843910048797  0.5448450987064103  0.39509524495398984  1.0000
  C   C19       1.0  0.5727100984349478  0.4524788216871473  0.6110163459721468  1.0000
  C   C20       1.0  0.42728990113641535  0.547521178742672  0.38898365370942434  1.0000
  C   C21       1.0  0.8156712943892712  0.36323823395546057  0.5823063957640421  1.0000
  C   C22       1.0  0.1843287051075068  0.6367617657267616  0.41769360391554883  1.0000
  C   C23       1.0  0.6452546249872759  0.36184538182914405  0.5858980165871256  1.0000
  C   C24       1.0  0.3547453746403892  0.6381546179794196  0.4141019838062535  1.0000
  C   C25       1.0  0.2990289091160935  0.8917831994033367  0.6082916691062716  1.0000
  C   C26       1.0  0.700971090586157  0.10821680115282427  0.39170833128908794  1.0000
  C   C27       1.0  0.23822535211655632  0.05375428315349374  0.5657114454424209  1.0000
  C   C28       1.0  0.7617746475111088  0.94624571665507  0.4342885549509582  1.0000
  C   C29       1.0  0.2816153094131342  0.9532294071863341  0.5403696952207288  1.0000
  C   C30       1.0  0.7183846902891162  0.046770593369826835  0.4596303051746308  1.0000
  C   C31       1.0  0.2133479867828821  0.08775673914789849  0.6590027099247964  1.0000
  C   C32       1.0  0.7866520140192227  0.9122432612818929  0.34099728975836574  1.0000
  C   C33       1.0  0.2195645230899594  0.12069959108926348  0.4918635896691785  1.0000
  C   C34       1.0  0.7804354764068187  0.8793004085929585  0.5081364100104125  1.0000
  C   C35       1.0  0.2755529090679348  0.9274397018962022  0.7046983633270476  1.0000
  C   C36       1.0  0.7244470905597303  0.0725602979123615  0.29530163706633156  1.0000
  C   C37       1.0  0.7389618940517015  0.04261304508574892  0.8361684336759055  1.0000
  C   C38       1.0  0.26103810680670525  0.9573869547227869  0.16383156671906454  1.0000
  C   C39       1.0  0.7885902269207573  0.9209190734582057  0.9780783358520047  1.0000
  C   C40       1.0  0.21140977270690786  0.07908092635035802  0.021921664541374553  1.0000
  C   C41       1.0  0.7177461245303364  0.07845499823846595  0.9297926905720766  1.0000
  C   C42       1.0  0.282253875041027  0.9215450021913533  0.07020730910949476  1.0000
  C   C43       1.0  0.7199362385881827  0.109212438570839  0.7619075445911916  1.0000
  C   C44       1.0  0.28006376090859536  0.8907875611113831  0.23809245508839944  1.0000
  C   C45       1.0  0.8082833647593857  0.8830210759546459  0.881460148602814  1.0000
  C   C46       1.0  0.1917166348682795  0.1169789238539178  0.11853985179056518  1.0000
  C   C47       1.0  0.78466346896326  0.9424506243768838  0.8119918433673631  1.0000
  C   C48       1.0  0.21533653053351814  0.05754937530533833  0.18800815631222786  1.0000
  N   N1        1.0  0.23136952631774974  0.025424087398104173  0.7240502427494776  1.0000
  N   N2        1.0  0.76863047440977  0.9745759122840899  0.2759497569317042  1.0000
  N   N3        1.0  0.742247833203136  0.018566303895121546  0.9965098451159665  1.0000
  N   N4        1.0  0.25775216752438374  0.9814336957870727  0.0034901545652153624  1.0000
  F   F1        1.0  0.9095448207992338  0.46999826089650615  0.8455916946218706  1.0000
  F   F2        1.0  0.0904551800591729  0.5300017389120296  0.15440830577309947  1.0000
  F   F3        1.0  0.5831621649411498  0.4787867342964222  0.8496992397005639  1.0000
  F   F4        1.0  0.4168378346865153  0.5212132655121414  0.1503007606928152  1.0000
  F   F5        1.0  0.0529853069671527  0.30927355882977287  0.756747165611439  1.0000
  F   F6        1.0  0.9470146937603671  0.6907264408524212  0.24325283406974293  1.0000
  F   F7        1.0  0.38970864726620225  0.3140785114759862  0.7581945133097583  1.0000
  F   F8        1.0  0.6102913535922044  0.6859214883325496  0.24180548708521174  1.0000
  F   F9        1.0  0.40607229881571505  0.44769994414588726  0.6112359120425708  1.0000
  F   F10       1.0  0.593927700681063  0.5523000555363348  0.3887640876370203  1.0000
  F   F11       1.0  0.07672490155442155  0.4526294696471656  0.5997114131130682  1.0000
  F   F12       1.0  0.9232750981478288  0.5473705309089952  0.4002885872822914  1.0000
  F   F13       1.0  0.8854717126786875  0.27532058278864935  0.557951655836228  1.0000
  F   F14       1.0  0.11452828694897758  0.7246794170199143  0.44204834455715114  1.0000
  F   F15       1.0  0.552996472598539  0.2724383307251611  0.5656631390182097  1.0000
  F   F16       1.0  0.44700352689823886  0.7275616689570609  0.4343368606613812  1.0000
  F   F17       1.0  0.35392930190168354  0.12013731323545833  0.4408297843835011  1.0000
  F   F18       1.0  0.6460706976696798  0.879862687194361  0.5591702152980702  1.0000
  F   F19       1.0  0.19961930075729273  0.2179433434867923  0.5290776723252298  1.0000
  F   F20       1.0  0.8003807001756992  0.7820566570693406  0.4709223280717204  1.0000
  F   F21       1.0  0.08550622422900722  0.08707170661004951  0.42502923953605826  1.0000
  F   F22       1.0  0.914493775342356  0.9129282938197698  0.5749707601455132  1.0000
  F   F23       1.0  0.5954661014776185  0.07107142508892371  0.6905822026236547  1.0000
  F   F24       1.0  0.40453389809374485  0.9289285753408957  0.30941779705791667  1.0000
  F   F25       1.0  0.8610345246504867  0.11609977924925645  0.7168078383917655  1.0000
  F   F26       1.0  0.13896547492087669  0.8839002211805629  0.2831921612898058  1.0000
  F   F27       1.0  0.6858062077765883  0.2046196091306007  0.7978053257434253  1.0000
  F   F28       1.0  0.3141937918510768  0.7953803906779631  0.20219467464995383  1.0000
  S   S1        1.0  0.30084446501935225  0.8560555981721839  0.7923485712879778  1.0000
  S   S2        1.0  0.6991555345520111  0.14394440225763527  0.20765142839359355  1.0000
  S   S3        1.0  0.8187503046668034  0.8526683408421704  0.06793411739732028  1.0000
  S   S4        1.0  0.18124969496086168  0.14733165896639336  0.9320658829960589  1.0000
  I   I1        1.0  0.5140915098682198  0.684568074716363  0.9702454791796004  1.0000
  I   I2        1.0  0.4859084908592998  0.315431924965831  0.029754520501581557  1.0000
  I   I3        1.0  0.04582697470128632  0.6769664230012121  0.9701257935332775  1.0000
  I   I4        1.0  0.9541730247954918  0.3230335766810099  0.02987420614631347  1.0000
  I   I5        1.0  0.5417089516378021  0.6717877055632943  0.6868435878009851  1.0000
  I   I6        1.0  0.45829104922060465  0.3282122942452415  0.313156412593985  1.0000
  I   I7        1.0  0.006647395770014396  0.6752765118096665  0.6816693648245419  1.0000
  I   I8        1.0  0.9933526049575054  0.3247234878725278  0.31833063485663987  1.0000
