data_image0
_chemical_formula_structural       H48C76N8F16S4I8
_chemical_formula_sum              "H48 C76 N8 F16 S4 I8"
_cell_length_a       17.329493339012274
_cell_length_b       11.799219685498043
_cell_length_c       9.825593919340019
_cell_angle_alpha    90.0
_cell_angle_beta     93.57992098366314
_cell_angle_gamma    90.0

_space_group_name_H-M_alt    "P 1"
_space_group_IT_number       1

loop_
  _space_group_symop_operation_xyz
  'x, y, z'

loop_
  _atom_site_type_symbol
  _atom_site_label
  _atom_site_symmetry_multiplicity
  _atom_site_fract_x
  _atom_site_fract_y
  _atom_site_fract_z
  _atom_site_occupancy
  H   H1        1.0  0.579576132138471  0.7924472269545109  0.7187139257055072  1.0000
  H   H2        1.0  0.4204238676145936  0.2924472263399805  0.7812860734556731  1.0000
  H   H3        1.0  0.42042386766496087  0.20755277342703612  0.2812860740488229  1.0000
  H   H4        1.0  0.5795761321888384  0.7075527731940527  0.2187139262986571  1.0000
  H   H5        1.0  0.47686305837010934  0.5543356928966203  0.5922360515560863  1.0000
  H   H6        1.0  0.5231369419927464  0.05433569312960364  0.90776394863113  1.0000
  H   H7        1.0  0.523136942010586  0.4456643074849267  0.4077639482045592  1.0000
  H   H8        1.0  0.47686305842047666  0.9456643072519434  0.09223605214923608  1.0000
  H   H9        1.0  0.45974683172328357  0.858389875768508  0.6563847011735786  1.0000
  H   H10       1.0  0.5402531680623087  0.35838987515397774  0.8436152990073222  1.0000
  H   H11       1.0  0.540253168112676  0.14161012461303893  0.3436152996004721  1.0000
  H   H12       1.0  0.45974683174112324  0.6416101243800556  0.1563847007470079  1.0000
  H   H13       1.0  0.42528855403887744  0.5198441476209446  0.8077634280862339  1.0000
  H   H14       1.0  0.5747114457467147  0.019844147006414244  0.6922365720946669  1.0000
  H   H15       1.0  0.5747114457970821  0.48015585276060246  0.19223657268781685  1.0000
  H   H16       1.0  0.42528855405671717  0.9801558525276192  0.30776342765966314  1.0000
  H   H17       1.0  0.31054762483685305  0.8028173067785509  0.9840944771298517  1.0000
  H   H18       1.0  0.6894523749162116  0.3028173070115343  0.5159055220313288  1.0000
  H   H19       1.0  0.689452374966579  0.19718269360299603  0.015905522624478533  1.0000
  H   H20       1.0  0.3105476248872203  0.6971826933700127  0.4840944777230015  1.0000
  H   H21       1.0  0.374339620692163  0.9331151240053608  0.8284725279365744  1.0000
  H   H22       1.0  0.6256603790934293  0.4331151233908304  0.6715274722443265  1.0000
  H   H23       1.0  0.625660379111269  0.06688487637618627  0.17152747181775582  1.0000
  H   H24       1.0  0.37433962074253024  0.5668848761432029  0.3284725285297242  1.0000
  H   H25       1.0  0.3341972409278967  0.594814701062476  0.9706033772762263  1.0000
  H   H26       1.0  0.665802759434959  0.09481470129545928  0.52939662291099  1.0000
  H   H27       1.0  0.6658027594527987  0.4051852984715574  0.02939662248441923  1.0000
  H   H28       1.0  0.3341972404010006  0.9051852982385741  0.4706033778630608  1.0000
  H   H29       1.0  0.5960953851310354  0.8704367495270078  0.3770798908613325  1.0000
  H   H30       1.0  0.40390461472276373  0.37043674975999114  0.12292010948614752  1.0000
  H   H31       1.0  0.403904614704924  0.12956325000702554  0.6229201099127182  1.0000
  H   H32       1.0  0.5960953850806683  0.6295632506215558  0.8770798902681828  1.0000
  H   H33       1.0  0.7288548263003579  0.7889735947065771  0.7485653917916982  1.0000
  H   H34       1.0  0.2711451740299703  0.28897359409204687  0.7514346073757975  1.0000
  H   H35       1.0  0.27114517408033756  0.21102640567496983  0.2514346079689473  1.0000
  H   H36       1.0  0.7288548263507251  0.7110264054419865  0.248565392384848  1.0000
  H   H37       1.0  0.7137865508643345  0.9568113579473088  0.2837242153252478  1.0000
  H   H38       1.0  0.2862134489569371  0.4568113581802921  0.21627578400251177  1.0000
  H   H39       1.0  0.28621344893909745  0.04318864243423824  0.7162757844290825  1.0000
  H   H40       1.0  0.7137865508464949  0.5431886422012548  0.7837242157518185  1.0000
  H   H41       1.0  0.8373706485657731  0.9629593865401791  0.42498380502777844  1.0000
  H   H42       1.0  0.16262935125549852  0.4629593867731624  0.07501619429998112  1.0000
  H   H43       1.0  0.1626293512376588  0.03704061384136795  0.5750161947265517  1.0000
  H   H44       1.0  0.8373706485479335  0.5370406136083846  0.924983805454349  1.0000
  H   H45       1.0  0.8446798206094996  0.8803675341994904  0.658746846136375  1.0000
  H   H46       1.0  0.15532017917609267  0.38036753443247384  0.8412531540445259  1.0000
  H   H47       1.0  0.1553201792264599  0.11963246533454283  0.34125315463767564  1.0000
  H   H48       1.0  0.8446798206273393  0.6196324659490732  0.15874684570980438  1.0000
  C   C1        1.0  0.8739030518899664  0.44195977945976217  0.5326812623092618  1.0000
  C   C2        1.0  0.1260969484728893  0.941959779226779  0.9673187378779543  1.0000
  C   C3        1.0  0.1260969485232566  0.5580402209217847  0.46731873847110406  1.0000
  C   C4        1.0  0.873903051907806  0.05804022115476812  0.032681261882691194  1.0000
  C   C5        1.0  0.8923539063030458  0.3409380100740279  0.46606715752480765  1.0000
  C   C6        1.0  0.10764609351822595  0.8409380106885582  0.0339328418029519  1.0000
  C   C7        1.0  0.10764609350038624  0.6590619894600055  0.5339328422295225  1.0000
  C   C8        1.0  0.892353906285206  0.15906198969298876  0.9660671579513783  1.0000
  C   C9        1.0  0.926185022233913  0.48508063012290703  0.6330164446674797  1.0000
  C   C10       1.0  0.0738149775191518  0.9850806298899237  0.8669835544937005  1.0000
  C   C11       1.0  0.07381497756951907  0.5149193702586399  0.3669835550868504  1.0000
  C   C12       1.0  0.9261850222842803  0.014919370491623278  0.13301644526062964  1.0000
  C   C13       1.0  0.9620055306653033  0.2860898500049849  0.5026974042236508  1.0000
  C   C14       1.0  0.037994469697552415  0.7860898506195152  0.9973025959635653  1.0000
  C   C15       1.0  0.037994469138128685  0.7139101495290484  0.4973025955306794  1.0000
  C   C16       1.0  0.9620055307156706  0.21391014976203176  0.0026974048168006168  1.0000
  C   C17       1.0  0.9957831656463998  0.43075698948523006  0.6688368673687831  1.0000
  C   C18       1.0  0.00421683413919243  0.9307569900997604  0.8311631328121177  1.0000
  C   C19       1.0  0.004216834189559699  0.5692430100488033  0.3311631334052676  1.0000
  C   C20       1.0  0.9957831656642394  0.06924301028178662  0.1688368669422124  1.0000
  C   C21       1.0  0.013776264647815029  0.3302477497549468  0.6035383997801288  1.0000
  C   C22       1.0  0.9862237351052497  0.8302477495219636  0.8964615993810517  1.0000
  C   C23       1.0  0.986223735155617  0.6697522497790865  0.39646159997420144  1.0000
  C   C24       1.0  0.013776264698182293  0.16975225001206987  0.10353840037327859  1.0000
  C   C25       1.0  0.557736629160018  0.6757135889078469  0.5670569736618416  1.0000
  C   C26       1.0  0.4422633706255744  0.1757135891408303  0.9329430265190592  1.0000
  C   C27       1.0  0.44226337064341403  0.32428641062618635  0.4329430260924886  1.0000
  C   C28       1.0  0.5577366291778576  0.824286410393203  0.06705697323527096  1.0000
  C   C29       1.0  0.44930392258985474  0.6839955942102912  0.7227724986834472  1.0000
  C   C30       1.0  0.5506960771957377  0.1839955944432746  0.7772275014974537  1.0000
  C   C31       1.0  0.5506960772135773  0.31600440617125575  0.27722750107088295  1.0000
  C   C32       1.0  0.44930392264022195  0.8160044059382724  0.222772499276597  1.0000
  C   C33       1.0  0.656546223727591  0.8238693497628252  0.5674899057975914  1.0000
  C   C34       1.0  0.3434537760254738  0.3238693499958086  0.9325100933635891  1.0000
  C   C35       1.0  0.343453776075841  0.17613065061872177  0.43251009395673895  1.0000
  C   C36       1.0  0.6565462237779581  0.6761306503857384  0.06748990639074112  1.0000
  C   C37       1.0  0.43432048630152675  0.8007495827552423  0.7275068712489773  1.0000
  C   C38       1.0  0.5656795134840655  0.3007495829882257  0.7724931289319235  1.0000
  C   C39       1.0  0.5656795135019053  0.19925041762630466  0.27249312850535284  1.0000
  C   C40       1.0  0.4343204863193665  0.6992504173933213  0.22750687082240667  1.0000
  C   C41       1.0  0.4133717102731142  0.6104154140677809  0.8117428554092709  1.0000
  C   C42       1.0  0.5866282900897415  0.11041541430076428  0.6882571447779453  1.0000
  C   C43       1.0  0.5866282901075812  0.3895845854662524  0.18825714435137467  1.0000
  C   C44       1.0  0.41337171029095393  0.8895845860807827  0.31174285498270016  1.0000
  C   C45       1.0  0.34860402193093587  0.7691167697431466  0.909700283393036  1.0000
  C   C46       1.0  0.6513959778546564  0.2691167699761298  0.590299716787865  1.0000
  C   C47       1.0  0.6513959779050237  0.23088322979088682  0.09029971738101474  1.0000
  C   C48       1.0  0.34860402194877554  0.7308832295579034  0.40970028296646527  1.0000
  C   C49       1.0  0.38478652472615554  0.842283865789427  0.8221666682641704  1.0000
  C   C50       1.0  0.6152134750594368  0.34228386602241045  0.6778333319167305  1.0000
  C   C51       1.0  0.6152134750772764  0.15771613459211992  0.17783333149015979  1.0000
  C   C52       1.0  0.3847865247439953  0.6577161343591366  0.32216666783759973  1.0000
  C   C53       1.0  0.3625120888953178  0.6527240923792423  0.9033016909744336  1.0000
  C   C54       1.0  0.6374879114350105  0.15272409261222572  0.5966983081930621  1.0000
  C   C55       1.0  0.6374879114853778  0.34727590715479095  0.09669830878621197  1.0000
  C   C56       1.0  0.362512088945685  0.8472759077693213  0.4033016915675833  1.0000
  C   C57       1.0  0.6511791710080401  0.872086918819468  0.4370988850262766  1.0000
  C   C58       1.0  0.348820829390495  0.3720869182049376  0.06290111430779821  1.0000
  C   C59       1.0  0.34882082937265535  0.12791308156207906  0.5629011147343689  1.0000
  C   C60       1.0  0.6511791709902004  0.6279130813290957  0.9370988854528474  1.0000
  C   C61       1.0  0.7257971821080664  0.8279999330809663  0.6478571342787353  1.0000
  C   C62       1.0  0.2742028176775259  0.32799993246643594  0.8521428659021656  1.0000
  C   C63       1.0  0.2742028176953656  0.17200006730058068  0.352142865475595  1.0000
  C   C64       1.0  0.7257971821259062  0.6720000670675974  0.14785713385216454  1.0000
  C   C65       1.0  0.7166294138217438  0.9213938268614503  0.38626530258515895  1.0000
  C   C66       1.0  0.2833705860320555  0.4213938270944336  0.11373469776232104  1.0000
  C   C67       1.0  0.28337058598168824  0.07860617267258303  0.6137346971691713  1.0000
  C   C68       1.0  0.7166294137713765  0.5786061732871134  0.8862653019920093  1.0000
  C   C69       1.0  0.7863609343842571  0.9249791054754245  0.4657571277289798  1.0000
  C   C70       1.0  0.21363906543701466  0.42497910570840786  0.03424287159877974  1.0000
  C   C71       1.0  0.21363906541917493  0.07502089405860879  0.5342428720253504  1.0000
  C   C72       1.0  0.7863609343664174  0.5750208946731391  0.9657571281555504  1.0000
  C   C73       1.0  0.7905594169635208  0.8790018557538384  0.5967659952624706  1.0000
  C   C74       1.0  0.20944058282207148  0.3790018559868216  0.9032340049184303  1.0000
  C   C75       1.0  0.20944058283991118  0.12099814462770872  0.40323400449185953  1.0000
  C   C76       1.0  0.7905594170138881  0.6209981443947254  0.09676599585562043  1.0000
  N   N1        1.0  0.5914468405130067  0.7701981912557643  0.6207201485046105  1.0000
  N   N2        1.0  0.4085531592725856  0.2701981914887476  0.8792798516762903  1.0000
  N   N3        1.0  0.40855315932295283  0.22980180912578277  0.3792798522694401  1.0000
  N   N4        1.0  0.5914468405308464  0.7298018088927993  0.12072014807803991  1.0000
  N   N5        1.0  0.4953993776771541  0.6337967932906016  0.6256814520893155  1.0000
  N   N6        1.0  0.5046006226857015  0.1337967935235849  0.8743185480979007  1.0000
  N   N7        1.0  0.5046006227360689  0.3662032062434318  0.3743185486910504  1.0000
  N   N8        1.0  0.49539937769499376  0.8662032068579621  0.12568145166274486  1.0000
  F   F1        1.0  0.910970135395399  0.5822523830490078  0.6994322463713086  1.0000
  F   F2        1.0  0.08902986435766576  0.08225238328199114  0.8005677527898718  1.0000
  F   F3        1.0  0.08902986440803302  0.4177476173325392  0.30056775338302155  1.0000
  F   F4        1.0  0.9109701354457663  0.9177476170995558  0.19943224696445844  1.0000
  F   F5        1.0  0.08099202805824787  0.27704659097225875  0.6366909952496614  1.0000
  F   F6        1.0  0.9190079717273444  0.7770465915867891  0.8633090049312393  1.0000
  F   F7        1.0  0.9190079717451841  0.7229534085617746  0.36330900450466863  1.0000
  F   F8        1.0  0.08099202810861514  0.22295340879475792  0.13669099584281133  1.0000
  F   F9        1.0  0.04541718507630703  0.4755274068586144  0.765370698125833  1.0000
  F   F10       1.0  0.9545828147092853  0.975527406625631  0.7346293020550678  1.0000
  F   F11       1.0  0.9545828147596525  0.5244725926754189  0.23462930264821769  1.0000
  F   F12       1.0  0.045417185094146724  0.024472592908402282  0.26537069769926236  1.0000
  F   F13       1.0  0.9818496772439709  0.1883374129164881  0.4421264956512643  1.0000
  F   F14       1.0  0.01815032260982855  0.6883374135310185  0.057873504696215695  1.0000
  F   F15       1.0  0.01815032259198885  0.8116625866175452  0.5578735051227864  1.0000
  F   F16       1.0  0.9818496771936035  0.31166258685052856  0.9421264950581145  1.0000
  S   S1        1.0  0.5936236684381613  0.6042494037773362  0.4340571357830258  1.0000
  S   S2        1.0  0.406376331415638  0.10424940316280577  0.06594286456445415  1.0000
  S   S3        1.0  0.4063763313652707  0.3957505966042109  0.5659428639713043  1.0000
  S   S4        1.0  0.593623668387794  0.8957505963712276  0.934057135189876  1.0000
  I   I1        1.0  0.7682800002745228  0.5300200027368189  0.4945191344678821  1.0000
  I   I2        1.0  0.23171999957927647  0.03002000212228854  0.005480865879597863  1.0000
  I   I3        1.0  0.23171999952890918  0.4699799976447281  0.505480865286448  1.0000
  I   I4        1.0  0.7682800002566831  0.9699799974117448  0.9945191348944528  1.0000
  I   I5        1.0  0.8177327334842251  0.2691821107376844  0.3132372764646993  1.0000
  I   I6        1.0  0.1822672663695742  0.7691821113522147  0.18676272388278073  1.0000
  I   I7        1.0  0.1822672663192069  0.7308178887963489  0.686762723289631  1.0000
  I   I8        1.0  0.8177327334663854  0.23081788902933226  0.81323727689127  1.0000
