data_image0
_chemical_formula_structural       H10C12N2F4S4I2
_chemical_formula_sum              "H10 C12 N2 F4 S4 I2"
_cell_length_a       5.492762506801135
_cell_length_b       7.455219777407512
_cell_length_c       11.957467621526318
_cell_angle_alpha    84.99462479155095
_cell_angle_beta     77.55074641351753
_cell_angle_gamma    73.26683258770665

_space_group_name_H-M_alt    "P 1"
_space_group_IT_number       1

loop_
  _space_group_symop_operation_xyz
  'x, y, z'

loop_
  _atom_site_type_symbol
  _atom_site_label
  _atom_site_symmetry_multiplicity
  _atom_site_fract_x
  _atom_site_fract_y
  _atom_site_fract_z
  _atom_site_occupancy
  H   H1        1.0  0.15997385455367552  0.9297938167896583  0.40836864115147664  1.0000
  H   H2        1.0  0.8400261452081361  0.0702061837142462  0.5916313586099581  1.0000
  H   H3        1.0  0.940552029026227  0.6950644769594024  0.3186596118253736  1.0000
  H   H4        1.0  0.059447970337012136  0.3049355235104615  0.681340388792791  1.0000
  H   H5        1.0  0.8215666026474014  0.4931542214451657  0.33408564782637107  1.0000
  H   H6        1.0  0.17843339671583752  0.5068457790246981  0.6659143527917936  1.0000
  H   H7        1.0  0.5642272247949982  0.8734702942818192  0.25646960575261174  1.0000
  H   H8        1.0  0.43577277496681344  0.12652970622208518  0.743530394008823  1.0000
  H   H9        1.0  0.4456744456269464  0.6722086135633737  0.27221142710556134  1.0000
  H   H10       1.0  0.5543255541348653  0.32779138694053067  0.7277885726558734  1.0000
  C   C1        1.0  0.8231047439708397  0.5821488372595832  0.9269624601408448  1.0000
  C   C2        1.0  0.17689525539239928  0.41785116321028054  0.07303754047731977  1.0000
  C   C3        1.0  0.9046101616415053  0.6930776496006088  0.9911772098862474  1.0000
  C   C4        1.0  0.09538983812030638  0.3069223509032958  0.008822789875187398  1.0000
  C   C5        1.0  0.07905853791979474  0.6116570235914083  0.06262569606770854  1.0000
  C   C6        1.0  0.9209414618420168  0.3883429769124962  0.9373743036937262  1.0000
  C   C7        1.0  0.40008045486979626  0.7986036025245457  0.5193268463573091  1.0000
  C   C8        1.0  0.5999195450430436  0.20139639654457436  0.4806731542631208  1.0000
  C   C9        1.0  0.7744388924864165  0.6409813351488131  0.3552680743886815  1.0000
  C   C10       1.0  0.2255611068768227  0.35901866532105087  0.644731926229483  1.0000
  C   C11       1.0  0.5261044077881072  0.7590782626942624  0.31576721906581345  1.0000
  C   C12       1.0  0.47389559197370446  0.24092173780964204  0.6842327806956213  1.0000
  N   N1        1.0  0.337409226801992  0.8385726827495863  0.41704733537948363  1.0000
  N   N2        1.0  0.6625907735094201  0.1614273163535743  0.5829526643842166  1.0000
  F   F1        1.0  0.8184417255199837  0.8821008022977952  0.983711836126248  1.0000
  F   F2        1.0  0.18155827424182797  0.11789919820610928  0.0162881636351867  1.0000
  F   F3        1.0  0.15678456458204645  0.7265671015777488  0.12126380243704288  1.0000
  F   F4        1.0  0.843215435179765  0.2734328989261555  0.8787361973243919  1.0000
  S   S1        1.0  0.20282025518973618  0.873084082664976  0.6449782542841915  1.0000
  S   S2        1.0  0.7971797451216758  0.1269159164381848  0.35502174547950865  1.0000
  S   S3        1.0  0.7159763184671158  0.6561842943846192  0.5106571702062532  1.0000
  S   S4        1.0  0.2840236812946958  0.3438157061192852  0.48934282955518155  1.0000
  I   I1        1.0  0.5635260021989965  0.7052229241495043  0.8151065789197227  1.0000
  I   I2        1.0  0.43647399811241566  0.2947770749536563  0.18489342084397745  1.0000
