data_image0
_chemical_formula_structural       H28C24N12F8S4I4
_chemical_formula_sum              "H28 C24 N12 F8 S4 I4"
_cell_length_a       5.1580143721846925
_cell_length_b       8.463175199122908
_cell_length_c       23.055323274817066
_cell_angle_alpha    90.0
_cell_angle_beta     92.85968594534877
_cell_angle_gamma    90.0

_space_group_name_H-M_alt    "P 1"
_space_group_IT_number       1

loop_
  _space_group_symop_operation_xyz
  'x, y, z'

loop_
  _atom_site_type_symbol
  _atom_site_label
  _atom_site_symmetry_multiplicity
  _atom_site_fract_x
  _atom_site_fract_y
  _atom_site_fract_z
  _atom_site_occupancy
  H   H1        1.0  0.2053831663305281  0.3907810865528048  0.18495961678006356  1.0000
  H   H2        1.0  0.2946168337240073  0.890781086604623  0.3150403833212665  1.0000
  H   H3        1.0  0.7946168337785428  0.6092189135508315  0.8150403834225965  1.0000
  H   H4        1.0  0.7053831663001227  0.10921891349901336  0.6849596164471217  1.0000
  H   H5        1.0  0.969203596163526  0.2841602487739158  0.22174443536824576  1.0000
  H   H6        1.0  0.5307964038296331  0.7841602488257339  0.27825556440702814  1.0000
  H   H7        1.0  0.03079640386060403  0.7158397513297204  0.7782555644001423  1.0000
  H   H8        1.0  0.46920359619449686  0.21583975127790234  0.72174443536136  1.0000
  H   H9        1.0  0.1889933483570959  0.6590344969554729  0.1788746833197336  1.0000
  H   H10       1.0  0.3110066516974395  0.15903449690365476  0.32112531678159645  1.0000
  H   H11       1.0  0.811006651751975  0.3409655031481634  0.8211253168829264  1.0000
  H   H12       1.0  0.6889933483266905  0.8409655031999814  0.6788746829867917  1.0000
  H   H13       1.0  0.9592925988453288  0.7678521083521321  0.2169402495347315  1.0000
  H   H14       1.0  0.5407074012327711  0.2678521083003139  0.2830597506748144  1.0000
  H   H15       1.0  0.040707401263741984  0.23214789175150422  0.7830597506679284  1.0000
  H   H16       1.0  0.45929259887629975  0.7321478918033224  0.7169402495278456  1.0000
  H   H17       1.0  0.8287218241390789  0.2877965081300011  0.07783916402877505  1.0000
  H   H18       1.0  0.6712781758540801  0.7877965081818192  0.4221608357464989  1.0000
  H   H19       1.0  0.1712781758850511  0.7122034919736351  0.9221608357396132  1.0000
  H   H20       1.0  0.32872182417004986  0.21220349192181698  0.5778391640218892  1.0000
  H   H21       1.0  0.9861953935851442  0.47660144036933366  0.0789517200934485  1.0000
  H   H22       1.0  0.5138046064080148  0.9766014404211517  0.4210482796818255  1.0000
  H   H23       1.0  0.013804606438985711  0.5233985597343026  0.9210482796749397  1.0000
  H   H24       1.0  0.48619539361611525  0.0233985596824845  0.5789517200865627  1.0000
  H   H25       1.0  0.7714998728060739  0.4214355683396035  0.01864191912425795  1.0000
  H   H26       1.0  0.7285001271870851  0.9214355683914217  0.48135808065101604  1.0000
  H   H27       1.0  0.22850012721805602  0.5785644317640328  0.9813580806441301  1.0000
  H   H28       1.0  0.27149987283704485  0.07856443171221461  0.5186419191173721  1.0000
  C   C1        1.0  0.9418748819592683  0.5269076930443489  0.22550482755410126  1.0000
  C   C2        1.0  0.5581251181188318  0.026907692992530808  0.27449517265544465  1.0000
  C   C3        1.0  0.05812511814980266  0.47309230705928734  0.7744951726485588  1.0000
  C   C4        1.0  0.44187488199023917  0.9730923071111054  0.7255048275472155  1.0000
  C   C5        1.0  0.3259036289227565  0.5108186890007943  0.45011060393928004  1.0000
  C   C6        1.0  0.17409637104683806  0.010818688948976146  0.049889395727778035  1.0000
  C   C7        1.0  0.6740963711013735  0.48918131110284196  0.5498893958291081  1.0000
  C   C8        1.0  0.8259036289772919  0.9891813111546601  0.9501106040406101  1.0000
  C   C9        1.0  0.5065133599528799  0.38899535251747885  0.4565487699035173  1.0000
  C   C10       1.0  0.9934866400402792  0.888995352569297  0.04345122987175666  1.0000
  C   C11       1.0  0.49348664007125004  0.6110046464045678  0.5434512298648708  1.0000
  C   C12       1.0  0.006513359983850889  0.11100464753433927  0.9565487698966315  1.0000
  C   C13       1.0  0.6769386622487388  0.37882407306565785  0.5051827355676278  1.0000
  C   C14       1.0  0.8230613379148676  0.8788240731174759  0.9948172647363623  1.0000
  C   C15       1.0  0.3230613378603321  0.6211759270379784  0.4948172646350323  1.0000
  C   C16       1.0  0.17693866219420337  0.1211759269861603  0.0051827354662977625  1.0000
  C   C17       1.0  0.5910306581863833  0.47832355880090177  0.09509653844873825  1.0000
  C   C18       1.0  0.9089693418067758  0.9783235588527199  0.4049034613265357  1.0000
  C   C19       1.0  0.40896934183774664  0.5216764413027345  0.9049034613196498  1.0000
  C   C20       1.0  0.09103065821735423  0.02167644125091635  0.5950965384418524  1.0000
  C   C21       1.0  0.8073291282291318  0.4129342035081799  0.06586614737902352  1.0000
  C   C22       1.0  0.6926708718489681  0.9129342023784084  0.4341338528305223  1.0000
  C   C23       1.0  0.1926708718799391  0.5870657965954564  0.9341338528236367  1.0000
  C   C24       1.0  0.3073291282601027  0.08706579654363822  0.5658661473721377  1.0000
  N   N1        1.0  0.04564402942741175  0.39014103126946836  0.20918852874055413  1.0000
  N   N2        1.0  0.4543559706271237  0.8901410313212865  0.2908114713607759  1.0000
  N   N3        1.0  0.9543559706816593  0.6098589688341679  0.790811471462106  1.0000
  N   N4        1.0  0.5456440294819471  0.10985896878234973  0.7091885288418841  1.0000
  N   N5        1.0  0.042372975533872315  0.661713109824358  0.20700027359870124  1.0000
  N   N6        1.0  0.4576270245206632  0.1617131097725399  0.2929997265026288  1.0000
  N   N7        1.0  0.9576270244902576  0.3382868902792782  0.792999726169687  1.0000
  N   N8        1.0  0.5423729755884078  0.8382868903310964  0.7070002737000314  1.0000
  N   N9        1.0  0.415859588093643  0.5289873652224487  0.11906705552310119  1.0000
  N   N10       1.0  0.08414041196089245  0.02898736517063059  0.38093294457822885  1.0000
  N   N11       1.0  0.5841404120154279  0.47101263488118755  0.880932944679559  1.0000
  N   N12       1.0  0.9158595880632375  0.9710126349330056  0.6190670551901593  1.0000
  F   F1        1.0  0.5206306303395447  0.2763322151528151  0.4149743882391105  1.0000
  F   F2        1.0  0.9793693697385553  0.7763322140230435  0.08502561197043544  1.0000
  F   F3        1.0  0.47936936976952615  0.7236677849508212  0.5850256119635496  1.0000
  F   F4        1.0  0.02063063037051565  0.22366778489900305  0.9149743882322245  1.0000
  F   F5        1.0  0.8483870544250823  0.2562284236092307  0.5080044529656105  1.0000
  F   F6        1.0  0.6516129456535833  0.7562284236610488  0.9919955469041078  1.0000
  F   F7        1.0  0.15161294559904775  0.7437715764944055  0.49199554680277763  1.0000
  F   F8        1.0  0.3483870544554877  0.24377157644258743  0.008004453298552329  1.0000
  S   S1        1.0  0.6850839628015161  0.5279812960108741  0.2706074696169154  1.0000
  S   S2        1.0  0.8149160371916431  0.027981295959055907  0.22939253015835856  1.0000
  S   S3        1.0  0.31491603722261396  0.47201870409276225  0.7293925301514727  1.0000
  S   S4        1.0  0.1850839628324869  0.9720187041445802  0.7706074696100296  1.0000
  I   I1        1.0  0.06375182406156392  0.5229084930746369  0.37516271985065325  1.0000
  I   I2        1.0  0.4362481759929715  0.02290849302281877  0.12483728025067684  1.0000
  I   I3        1.0  0.936248175962566  0.4770915070289994  0.624837279917735  1.0000
  I   I4        1.0  0.5637518241160994  0.9770915070808175  0.8751627199519831  1.0000
