data_image0
_chemical_formula_structural       H48C64N8F8S4I4
_chemical_formula_sum              "H48 C64 N8 F8 S4 I4"
_cell_length_a       12.850222368856711
_cell_length_b       5.58930478915682
_cell_length_c       21.99860681696748
_cell_angle_alpha    90.0
_cell_angle_beta     97.49222581515421
_cell_angle_gamma    90.0

_space_group_name_H-M_alt    "P 1"
_space_group_IT_number       1

loop_
  _space_group_symop_operation_xyz
  'x, y, z'

loop_
  _atom_site_type_symbol
  _atom_site_label
  _atom_site_symmetry_multiplicity
  _atom_site_fract_x
  _atom_site_fract_y
  _atom_site_fract_z
  _atom_site_occupancy
  H   H1        1.0  0.6492103171028891  0.3307477405036772  0.4575234792588152  1.0000
  H   H2        1.0  0.8507896829822091  0.8307477414736708  0.042476520553580456  1.0000
  H   H3        1.0  0.3507896826895474  0.6692522596471787  0.5424765204083289  1.0000
  H   H4        1.0  0.14921031769652957  0.16925225867718516  0.9575234795681048  1.0000
  H   H5        1.0  0.5746638018084637  0.13797637257071804  0.4973077378392381  1.0000
  H   H6        1.0  0.9253361983856463  0.6379763717515804  0.002692262431629266  1.0000
  H   H7        1.0  0.42533619887027513  0.862023627580138  0.5026922622824472  1.0000
  H   H8        1.0  0.0746638015158018  0.36202362839927554  0.9973077376939864  1.0000
  H   H9        1.0  0.5240528704447976  0.9422456188499397  0.2770984220725063  1.0000
  H   H10       1.0  0.9759471297493124  0.4422456196690775  0.22290157819836098  1.0000
  H   H11       1.0  0.4759471294566505  0.057754381300916195  0.7229015780531095  1.0000
  H   H12       1.0  0.02405287015213573  0.5577543804817786  0.7770984219272546  1.0000
  H   H13       1.0  0.41405258802125866  0.921399723985513  0.17457041324162986  1.0000
  H   H14       1.0  0.08594741192946533  0.4213997230155194  0.325429586821178  1.0000
  H   H15       1.0  0.5859474118801895  0.07860027616534296  0.8254295868839859  1.0000
  H   H16       1.0  0.9140525878629712  0.5786002771353366  0.674570412845966  1.0000
  H   H17       1.0  0.2923811179419596  0.2558014751268712  0.14055727860614514  1.0000
  H   H18       1.0  0.20761888200876447  0.7558014743077336  0.35944272145666273  1.0000
  H   H19       1.0  0.7076188819594884  0.7441985250239849  0.8594427215194705  1.0000
  H   H20       1.0  0.792381117783672  0.24419852584312252  0.6405572782104814  1.0000
  H   H21       1.0  0.2792930836191051  0.6069546371100246  0.20852619283694462  1.0000
  H   H22       1.0  0.22070691633161899  0.1069546379291622  0.29147380722586325  1.0000
  H   H23       1.0  0.7207069162823431  0.39304536304083143  0.7914738072886711  1.0000
  H   H24       1.0  0.7792930834608176  0.8930453622216937  0.7085261924412808  1.0000
  H   H25       1.0  0.3924843140446795  0.6292647498528317  0.30982689963712934  1.0000
  H   H26       1.0  0.10751568590604457  0.12926475067196927  0.19017310042567856  1.0000
  H   H27       1.0  0.6075156858567686  0.37073525029802434  0.6901731004884865  1.0000
  H   H28       1.0  0.8924843139954035  0.8707352494788868  0.8098268996999372  1.0000
  H   H29       1.0  0.6929889055042285  0.1646531196125435  0.2963395526157772  1.0000
  H   H30       1.0  0.8070110946898814  0.6646531187934058  0.20366044765509  1.0000
  H   H31       1.0  0.30701109439721963  0.8353468805383124  0.7036604475098385  1.0000
  H   H32       1.0  0.19298890521156664  0.3353468795683189  0.7963395524705258  1.0000
  H   H33       1.0  0.8624640906342262  0.37100936131143203  0.2936485629594044  1.0000
  H   H34       1.0  0.6375359094508719  0.8710093622814257  0.20635143685299123  1.0000
  H   H35       1.0  0.13753591004451246  0.628990638839424  0.7063514371622809  1.0000
  H   H36       1.0  0.3624640903415645  0.12899063786943032  0.7936485628141527  1.0000
  H   H37       1.0  0.8972317865839822  0.7624288656197733  0.34713785815252707  1.0000
  H   H38       1.0  0.6027682135011161  0.26242886643891083  0.1528621416598685  1.0000
  H   H39       1.0  0.10276821320845425  0.23757113453108275  0.6528621415146169  1.0000
  H   H40       1.0  0.39723178640033197  0.7375711337119452  0.8471378584657472  1.0000
  H   H41       1.0  0.760388402165522  0.9416350116047201  0.4038427513062402  1.0000
  H   H42       1.0  0.7396115979195763  0.44163501242385783  0.09615724850615535  1.0000
  H   H43       1.0  0.23961159840420523  0.058364988546135844  0.5961572483569734  1.0000
  H   H44       1.0  0.2603884019818718  0.5583649877269983  0.9038427516194605  1.0000
  H   H45       1.0  0.5891846382747831  0.7331797986665534  0.40615543366132206  1.0000
  H   H46       1.0  0.9108153618103152  0.23317979948569104  0.09384456615107359  1.0000
  H   H47       1.0  0.4108153616266651  0.2668202014843026  0.5938445664642938  1.0000
  H   H48       1.0  0.08918463798212127  0.7668202006651649  0.9061554335160705  1.0000
  C   C1        1.0  0.9080383827403435  0.5817278950877361  0.5231908711495502  1.0000
  C   C2        1.0  0.591961617002817  0.08172789411774256  0.9768091285804017  1.0000
  C   C3        1.0  0.09196161716110463  0.4182721050631198  0.4768091289760655  1.0000
  C   C4        1.0  0.40803838278961946  0.9182721060331134  0.023190871086742355  1.0000
  C   C5        1.0  0.0032729792396879215  0.7017357789485819  0.5365107552539782  1.0000
  C   C6        1.0  0.4967270203690983  0.20173577797858822  0.9634892447263861  1.0000
  C   C7        1.0  0.9967270205527485  0.29826422120227414  0.4634892444131658  1.0000
  C   C8        1.0  0.5032729795323497  0.7982642221722678  0.03651075539922973  1.0000
  C   C9        1.0  0.9070447477594141  0.3789718238499464  0.4864128175637757  1.0000
  C   C10       1.0  0.5929552524346958  0.8789718248199401  0.013587182707091586  1.0000
  C   C11       1.0  0.09295525214203401  0.6210281745117784  0.5135871825618401  1.0000
  C   C12       1.0  0.4070447482440429  0.12102817533091598  0.9864128174145936  1.0000
  C   C13       1.0  0.5165200665625757  0.19499818870396915  0.40654847343894723  1.0000
  C   C14       1.0  0.9834799335225226  0.6949981878848315  0.09345152637344832  1.0000
  C   C15       1.0  0.4834799332298609  0.8050018114468869  0.5934515262281967  1.0000
  C   C16       1.0  0.01652006637892546  0.3050018122660245  0.9065484737521676  1.0000
  C   C17       1.0  0.46542424635331403  0.28821811312297746  0.2979910795352677  1.0000
  C   C18       1.0  0.03457575359741007  0.7882181140929712  0.20200892052754016  1.0000
  C   C19       1.0  0.5345757535481341  0.7117818852387473  0.7020089205903481  1.0000
  C   C20       1.0  0.965424246304038  0.2117818860578849  0.7979910795980756  1.0000
  C   C21       1.0  0.47157891349738323  0.08810804716811498  0.26070830966221104  1.0000
  C   C22       1.0  0.028421086453340825  0.5881080481381086  0.23929169040059686  1.0000
  C   C23       1.0  0.5284210862950532  0.9118919511936098  0.739291690004933  1.0000
  C   C24       1.0  0.9715789134481073  0.41189195201274736  0.760708309725019  1.0000
  C   C25       1.0  0.40946790752021145  0.07712209232823529  0.20391854083113917  1.0000
  C   C26       1.0  0.09053209243051256  0.5771220915090977  0.2960814592316687  1.0000
  C   C27       1.0  0.5905320923812366  0.9228779078226207  0.7960814592944766  1.0000
  C   C28       1.0  0.9094679074709355  0.4228779086417583  0.703918540893947  1.0000
  C   C29       1.0  0.3409582618547847  0.26469546675467415  0.184971944920251  1.0000
  C   C30       1.0  0.15904173809593936  0.7646954677246678  0.3150280551425569  1.0000
  C   C31       1.0  0.6590417380466634  0.7353045333961818  0.8150280552053649  1.0000
  C   C32       1.0  0.840958261696497  0.2353045324261882  0.6849719445245872  1.0000
  C   C33       1.0  0.33387272646664096  0.46243461172743017  0.2229698360906762  1.0000
  C   C34       1.0  0.1661272734840831  0.9624346109082926  0.2770301639721317  1.0000
  C   C35       1.0  0.6661272734348072  0.5375653884234258  0.7770301640349396  1.0000
  C   C36       1.0  0.8338727271946557  0.03756538745343218  0.7229698361495536  1.0000
  C   C37       1.0  0.396707669186861  0.47566414255270384  0.27968049874442136  1.0000
  C   C38       1.0  0.10329233076386299  0.9756641417335663  0.22031950131838648  1.0000
  C   C39       1.0  0.6032923307145871  0.5243358575981522  0.7203195013811944  1.0000
  C   C40       1.0  0.8967076691375852  0.024335858417289767  0.7796804988072292  1.0000
  C   C41       1.0  0.6316907098548947  0.43732850367044424  0.35157449303069926  1.0000
  C   C42       1.0  0.8683092902302035  0.9373285046404379  0.14842550678169628  1.0000
  C   C43       1.0  0.36830929071483237  0.5626714964804117  0.6484255066325142  1.0000
  C   C44       1.0  0.1316907096712446  0.06267149551041809  0.8515744933439195  1.0000
  C   C45       1.0  0.7077792358811923  0.3356060316551419  0.3194868250297303  1.0000
  C   C46       1.0  0.7922207634266154  0.8356060326251356  0.1805131747865958  1.0000
  C   C47       1.0  0.29222076402025593  0.6643939684957141  0.6805131750958855  1.0000
  C   C48       1.0  0.20777923636582105  0.16439396752572044  0.8194868248805481  1.0000
  C   C49       1.0  0.8030210096467938  0.45296451446190156  0.3180309580595939  1.0000
  C   C50       1.0  0.6969789904383045  0.9529645136427639  0.18196904175280165  1.0000
  C   C51       1.0  0.19697899014564266  0.5470354856889544  0.6819690416075501  1.0000
  C   C52       1.0  0.3030210094631436  0.04703548471896079  0.818030958372814  1.0000
  C   C53       1.0  0.8223380360948018  0.6717654505590881  0.3481893355795453  1.0000
  C   C54       1.0  0.6776619640993081  0.17176545137822574  0.15181066469132204  1.0000
  C   C55       1.0  0.1776619638066463  0.3282345495917679  0.6518106645460705  1.0000
  C   C56       1.0  0.32233803580213993  0.8282345487726304  0.8481893354342936  1.0000
  C   C57       1.0  0.7456782952979224  0.7724642514353429  0.3798701617153081  1.0000
  C   C58       1.0  0.7543217040098851  0.2724642504653493  0.120129838101018  1.0000
  C   C59       1.0  0.25432170449451397  0.22753574871551308  0.620129837951836  1.0000
  C   C60       1.0  0.245678295891563  0.7275357496855068  0.8798701620245978  1.0000
  C   C61       1.0  0.6497952088883691  0.6564519610950591  0.38160170721655495  1.0000
  C   C62       1.0  0.8502047913057409  0.1564519619141967  0.11839829305431238  1.0000
  C   C63       1.0  0.350204791013079  0.3435480390557969  0.6183982929090609  1.0000
  C   C64       1.0  0.1497952085957073  0.8435480382366594  0.8816017070713034  1.0000
  N   N1        1.0  0.5351425292828392  0.3094409224838344  0.35451634744540955  1.0000
  N   N2        1.0  0.964857470802259  0.8094409234538281  0.145483652366986  1.0000
  N   N3        1.0  0.4648574706186088  0.6905590776670216  0.6454836526802061  1.0000
  N   N4        1.0  0.03514252899017744  0.19055907669702793  0.854516347300158  1.0000
  N   N5        1.0  0.5848991990978476  0.22447471865088117  0.45711249631680384  1.0000
  N   N6        1.0  0.9151008009872507  0.7244747178317436  0.04288750349559167  1.0000
  N   N7        1.0  0.4151008008036004  0.7755252814999748  0.5428875038088118  1.0000
  N   N8        1.0  0.08489919880518582  0.27552528231911244  0.9571124961715523  1.0000
  F   F1        1.0  0.010172312917302816  0.9015995566704836  0.5720854907085228  1.0000
  F   F2        1.0  0.4898276874687741  0.40159955570049005  0.9279145092679109  1.0000
  F   F3        1.0  0.989827687761436  0.09840044348037233  0.42791450941316245  1.0000
  F   F4        1.0  0.5101723124326739  0.598400444450366  0.07208549085770485  1.0000
  F   F5        1.0  0.8162995950828258  0.25396871051903064  0.471917622715894  1.0000
  F   F6        1.0  0.6837004050022725  0.7539687114890243  0.02808237709650157  1.0000
  F   F7        1.0  0.1837004047096107  0.7460312878426941  0.52808237695125  1.0000
  F   F8        1.0  0.3162995956764663  0.24603128866183174  0.9719176230251837  1.0000
  S   S1        1.0  0.41105603267021257  0.00819051415639584  0.40592659919747365  1.0000
  S   S2        1.0  0.08894396728051146  0.5081905151263895  0.0940734008653342  1.0000
  S   S3        1.0  0.5889439672312355  0.9918094859944602  0.5940734009281421  1.0000
  S   S4        1.0  0.9110560326209365  0.4918094850244665  0.9059265992602815  1.0000
  I   I1        1.0  0.7692516042701438  0.7166564288587078  0.5541136254453028  1.0000
  I   I2        1.0  0.7307483955820282  0.21665642788871428  0.9458863747431208  1.0000
  I   I3        1.0  0.23074839563130425  0.28334357129214804  0.4458863746803129  1.0000
  I   I4        1.0  0.2692516043194198  0.7833435722621417  0.05411362538249494  1.0000
