data_image0
_chemical_formula_structural       H8C24N2F14S2I4
_chemical_formula_sum              "H8 C24 N2 F14 S2 I4"
_cell_length_a       6.09182129563909
_cell_length_b       9.578397198147403
_cell_length_c       13.738412312964417
_cell_angle_alpha    98.1908392960514
_cell_angle_beta     95.93048273647882
_cell_angle_gamma    99.25592616855245

_space_group_name_H-M_alt    "P 1"
_space_group_IT_number       1

loop_
  _space_group_symop_operation_xyz
  'x, y, z'

loop_
  _atom_site_type_symbol
  _atom_site_label
  _atom_site_symmetry_multiplicity
  _atom_site_fract_x
  _atom_site_fract_y
  _atom_site_fract_z
  _atom_site_occupancy
  H   H1        1.0  0.8913467545908101  0.9113181718269362  0.05366656278854815  1.0000
  H   H2        1.0  0.10865324470203494  0.08868182822530309  0.9463334369755723  1.0000
  H   H3        1.0  0.34193630275698084  0.7919855003269853  0.8274492039046509  1.0000
  H   H4        1.0  0.658063698390589  0.20801449989416684  0.17255079660224645  1.0000
  H   H5        1.0  0.146295942145278  0.6393252540356948  0.9325056316721126  1.0000
  H   H6        1.0  0.853704057147567  0.3606747460165443  0.06749436809200762  1.0000
  H   H7        1.0  0.7244838165005238  0.7671954943847585  0.15792140489481105  1.0000
  H   H8        1.0  0.27551618443366416  0.23280450566561958  0.8420785948704845  1.0000
  C   C1        1.0  0.17672875770520038  0.0029002443063252618  0.5756559337215948  1.0000
  C   C2        1.0  0.8232712415876446  0.9970997557459138  0.42434406604252556  1.0000
  C   C3        1.0  0.028941659943611787  0.09940685816763085  0.5857963422075775  1.0000
  C   C4        1.0  0.9710583393492332  0.9005931418846084  0.41420365755654287  1.0000
  C   C5        1.0  0.14530833654870798  0.9027957803876557  0.48884381288141726  1.0000
  C   C6        1.0  0.8546916627441371  0.09720421966458341  0.5111561868827031  1.0000
  C   C7        1.0  0.06589281271607053  0.41520852886707293  0.4190963042938887  1.0000
  C   C8        1.0  0.9341071865767744  0.5847914711851661  0.5809036954702316  1.0000
  C   C9        1.0  0.8802909498907864  0.48234451495154407  0.40643287995150196  1.0000
  C   C10       1.0  0.11970905125678345  0.5176554852696081  0.5935671205553954  1.0000
  C   C11       1.0  0.8149298570991892  0.5659722395171676  0.4861560832563641  1.0000
  C   C12       1.0  0.1850701438349987  0.43402776053321057  0.5138439165089314  1.0000
  C   C13       1.0  0.6395744381453706  0.8663076612712969  0.9343080121072997  1.0000
  C   C14       1.0  0.36042556278881727  0.13369233877908118  0.06569198765799578  1.0000
  C   C15       1.0  0.4221464806173819  0.7854505147494332  0.9008301092935581  1.0000
  C   C16       1.0  0.577853520316806  0.21454948530094498  0.09916989047173737  1.0000
  C   C17       1.0  0.31355735159442233  0.7000152533302852  0.9600032241807529  1.0000
  C   C18       1.0  0.6864426476984227  0.29998474672195397  0.039996775583367554  1.0000
  C   C19       1.0  0.41822763848616423  0.6904282865488787  0.05487856279187958  1.0000
  C   C20       1.0  0.5817723610200626  0.3095717136741346  0.9451214377138425  1.0000
  C   C21       1.0  0.6304945819274349  0.7679778809095452  0.08631772682354077  1.0000
  C   C22       1.0  0.3695054190067531  0.23202211914083296  0.9136822729417547  1.0000
  C   C23       1.0  0.2992073873203578  0.5996746321146816  0.11991942057678767  1.0000
  C   C24       1.0  0.7007926119724873  0.4003253679375576  0.8800805791873327  1.0000
  N   N1        1.0  0.7318474826576499  0.851723760647931  0.026943469209224403  1.0000
  N   N2        1.0  0.2681525166351951  0.1482762394043082  0.9730565305548959  1.0000
  F   F1        1.0  0.28309969399052376  0.8058253032573744  0.47632661003799975  1.0000
  F   F2        1.0  0.7169003069436641  0.19417469679300364  0.5236733897272958  1.0000
  F   F3        1.0  0.051940894241640334  0.19755595027087175  0.6696657595035127  1.0000
  F   F4        1.0  0.9480591066925476  0.8024440497795063  0.3303342402617828  1.0000
  F   F5        1.0  0.6352006202691389  0.6302895174577537  0.46999504706387596  1.0000
  F   F6        1.0  0.36479938087843083  0.36971048276339835  0.5300049534430213  1.0000
  F   F7        1.0  0.7591894001839924  0.4664481964798555  0.31586710588521727  1.0000
  F   F8        1.0  0.24081060075019564  0.5335518035705226  0.6841328938800783  1.0000
  F   F9        1.0  0.42750853802535005  0.5947479311538911  0.20511890269676725  1.0000
  F   F10       1.0  0.5724914612674951  0.40525206889834803  0.7948810970673531  1.0000
  F   F11       1.0  0.10707842599127068  0.6462420842888787  0.14410596213646076  1.0000
  F   F12       1.0  0.8929215751562991  0.35375791593227346  0.8558940383704364  1.0000
  F   F13       1.0  0.22917179373509752  0.4604110767020879  0.07158561424481655  1.0000
  F   F14       1.0  0.7708282071990905  0.5395889233482901  0.9284143855204791  1.0000
  S   S1        1.0  0.7868359389992825  0.975457701351824  0.8671459799690432  1.0000
  S   S2        1.0  0.2131640600221358  0.02454229764214919  0.13285401979301237  1.0000
  I   I1        1.0  0.432796345232609  0.0007074966151832995  0.6901349134366472  1.0000
  I   I2        1.0  0.5672036557015788  0.9992925034351948  0.30986508632864823  1.0000
  I   I3        1.0  0.14952320074159395  0.278669564675876  0.30080454168353715  1.0000
  I   I4        1.0  0.8504767987646328  0.7213304355471372  0.6991954588221849  1.0000
