data_image0
_chemical_formula_structural       H40C48N2O8F6Cl4
_chemical_formula_sum              "H40 C48 N2 O8 F6 Cl4"
_cell_length_a       9.205106657357492
_cell_length_b       10.402367189629956
_cell_length_c       11.974594719153444
_cell_angle_alpha    87.96247859535995
_cell_angle_beta     88.78887715254372
_cell_angle_gamma    75.65577040136957

_space_group_name_H-M_alt    "P 1"
_space_group_IT_number       1

loop_
  _space_group_symop_operation_xyz
  'x, y, z'

loop_
  _atom_site_type_symbol
  _atom_site_label
  _atom_site_symmetry_multiplicity
  _atom_site_fract_x
  _atom_site_fract_y
  _atom_site_fract_z
  _atom_site_occupancy
  H   H1        1.0  0.4342455084206843  0.6751547009956175  0.9414219185601632  1.0000
  H   H2        1.0  0.5657544916397074  0.3248452984847804  0.05857808129577084  1.0000
  H   H3        1.0  0.5123346604558292  0.7182145625342271  0.8115711708833876  1.0000
  H   H4        1.0  0.48766533932890027  0.28178543793833166  0.18842882897487942  1.0000
  H   H5        1.0  0.6820919011301888  0.5203419437781223  0.9918843497906069  1.0000
  H   H6        1.0  0.31790809865454045  0.4796580566944365  0.008115650067660109  1.0000
  H   H7        1.0  0.7626719474094871  0.5644809658194188  0.8634054958209297  1.0000
  H   H8        1.0  0.23732805265090476  0.43551903366097916  0.13659450403500423  1.0000
  H   H9        1.0  0.9314745441574589  0.4325493673614641  0.61864784760287  1.0000
  H   H10       1.0  0.06852545562727032  0.5674506331110948  0.3813521522553972  1.0000
  H   H11       1.0  0.8158062053441684  0.9041923705545327  0.7260031848107527  1.0000
  H   H12       1.0  0.1841937944405609  0.09580762991802605  0.2739968150475145  1.0000
  H   H13       1.0  0.6235527220520678  0.8184400620591578  0.6249526085413953  1.0000
  H   H14       1.0  0.3764472780083238  0.1815599374212402  0.37504739131453857  1.0000
  H   H15       1.0  0.9425068511235078  0.667532129787634  0.9701649081658723  1.0000
  H   H16       1.0  0.057493148936883696  0.332467869692764  0.029835091690061665  1.0000
  H   H17       1.0  0.9715686665980475  0.7346099614784113  0.1620768394435558  1.0000
  H   H18       1.0  0.02843133318668183  0.26539003899414737  0.8379231604147113  1.0000
  H   H19       1.0  0.2577188623837071  0.9847901814172999  0.04696562662561128  1.0000
  H   H20       1.0  0.7422811374010223  0.015209819055258724  0.9530343732326558  1.0000
  H   H21       1.0  0.10019139415708264  0.8964959079622095  0.3861869665463624  1.0000
  H   H22       1.0  0.8998086056276466  0.10350409251034924  0.6138130333119047  1.0000
  H   H23       1.0  0.9556928000694123  0.8570862657365153  0.30675881417726913  1.0000
  H   H24       1.0  0.04430719971531702  0.14291373473604338  0.6932411856809979  1.0000
  H   H25       1.0  0.13549956629419838  0.7389330841792433  0.32054264193136095  1.0000
  H   H26       1.0  0.8645004337661933  0.2610669153011546  0.679457357924573  1.0000
  H   H27       1.0  0.421926137361722  0.22820950478565527  0.7533883940184345  1.0000
  H   H28       1.0  0.5780738624230074  0.7717904956869034  0.24661160583983266  1.0000
  H   H29       1.0  0.3668188923286551  0.05230879118942628  0.8426050376172428  1.0000
  H   H30       1.0  0.6331811074560743  0.9476912092831324  0.15739496224102426  1.0000
  H   H31       1.0  0.5824970680580448  0.09044481399404902  0.7619486142431408  1.0000
  H   H32       1.0  0.41750293198898364  0.9095551854525059  0.23805138644848736  1.0000
  H   H33       1.0  0.5740773855660606  0.21749479427453858  0.6553336366173449  1.0000
  H   H34       1.0  0.4259226142186688  0.78250520619802  0.3446663632409222  1.0000
  H   H35       1.0  0.3272327459073511  0.9573173029052208  0.49883322941929553  1.0000
  H   H36       1.0  0.6727672538773782  0.04268269756733791  0.5011667704389716  1.0000
  H   H37       1.0  0.6030705636892022  0.40981258289210626  0.506164141494509  1.0000
  H   H38       1.0  0.39692943609552706  0.5901874175804526  0.49383585836375815  1.0000
  H   H39       1.0  0.1600020247283554  0.8077737204628721  0.5546276950999111  1.0000
  H   H40       1.0  0.8399979750563737  0.19222628000968683  0.44537230475835604  1.0000
  C   C1        1.0  0.658645170152493  0.5553041792931054  0.9053160508606529  1.0000
  C   C2        1.0  0.34135483099480834  0.4446958201853085  0.09468394899516883  1.0000
  C   C3        1.0  0.5375431839312085  0.6834833633279208  0.8980644341201435  1.0000
  C   C4        1.0  0.4624568161291831  0.31651663615247716  0.10193556573579064  1.0000
  C   C5        1.0  0.765427916653099  0.6195423220474983  0.6170731214623235  1.0000
  C   C6        1.0  0.23457208340729277  0.3804576774328996  0.3829268783936105  1.0000
  C   C7        1.0  0.22918024822184505  0.916048544392015  0.8121622434936775  1.0000
  C   C8        1.0  0.7708197518385466  0.08395145508838299  0.18783775636225652  1.0000
  C   C9        1.0  0.012393273311019649  0.7355032778594724  0.9854412142089923  1.0000
  C   C10       1.0  0.9876067264737097  0.26449672261308643  0.01455878564927483  1.0000
  C   C11       1.0  0.8388413900990883  0.8012124599495151  0.7011107898038109  1.0000
  C   C12       1.0  0.16115860996130346  0.19878753953088268  0.29888921005212316  1.0000
  C   C13       1.0  0.11779842742317695  0.8628485334854701  0.11491341995550877  1.0000
  C   C14       1.0  0.8822015734350991  0.13715146695126143  0.8850865807383402  1.0000
  C   C15       1.0  0.2946738843563296  0.9457733587454156  0.5858390771135666  1.0000
  C   C16       1.0  0.705326115704062  0.05422664073498236  0.4141609227423673  1.0000
  C   C17       1.0  0.08433757224086913  0.7889228928788844  0.8987588425345997  1.0000
  C   C18       1.0  0.9156624275438601  0.21107710759367446  0.1012411573236673  1.0000
  C   C19       1.0  0.9056725677260808  0.5357419677583939  0.6419661757284756  1.0000
  C   C20       1.0  0.0943274323209477  0.46425803168816093  0.35803382496315256  1.0000
  C   C21       1.0  0.02973117534774729  0.7735358683270038  0.09406918066017653  1.0000
  C   C22       1.0  0.970268824436982  0.226464132145555  0.9059308191980905  1.0000
  C   C23       1.0  0.6493669956830218  0.566397955129854  0.5635020542162033  1.0000
  C   C24       1.0  0.3506330051886175  0.4336020453407206  0.43649794564195177  1.0000
  C   C25       1.0  0.17417795661394023  0.8788853343346498  0.9192425616924749  1.0000
  C   C26       1.0  0.8258220434464514  0.12111466514574806  0.08075743816345905  1.0000
  C   C27       1.0  0.9787410817265323  0.7173659458397147  0.7274438436089542  1.0000
  C   C28       1.0  0.021258918058196977  0.2826340546328441  0.272556156249313  1.0000
  C   C29       1.0  0.20294861347673465  0.8622820089341149  0.616884176861056  1.0000
  C   C30       1.0  0.7970513865836569  0.13771799054628284  0.3831158229948779  1.0000
  C   C31       1.0  0.19139791972978593  0.9151181113044027  0.028274491762104285  1.0000
  C   C32       1.0  0.8086020803172426  0.08488188814215201  0.9717255089295239  1.0000
  C   C33       1.0  0.012278920138284364  0.5837161366095641  0.6970938440561314  1.0000
  C   C34       1.0  0.9877210807333547  0.4162838638610106  0.3029061558020235  1.0000
  C   C35       1.0  0.3216159711297854  0.0001998396731368642  0.780038761303745  1.0000
  C   C36       1.0  0.6783840286415805  0.9998001607655789  0.2199612393902161  1.0000
  C   C37       1.0  0.17073422079103123  0.8480079903239464  0.7303849074184254  1.0000
  C   C38       1.0  0.8292657803562703  0.15199200915446753  0.26961509243739645  1.0000
  C   C39       1.0  0.07746178053538744  0.8449203288055659  0.31281150011268416  1.0000
  C   C40       1.0  0.9225382206119144  0.15507967067284775  0.6871884997431376  1.0000
  C   C41       1.0  0.35371004722528315  0.014365482774934117  0.6664105546073446  1.0000
  C   C42       1.0  0.6462899539220184  0.9856345167034798  0.3335894452484773  1.0000
  C   C43       1.0  0.732495268232076  0.7532631809685163  0.645720411706824  1.0000
  C   C44       1.0  0.26750473181495255  0.24673681847803847  0.3542795889848041  1.0000
  C   C45       1.0  0.15978845273505765  0.4897117515446707  0.7273750269718118  1.0000
  C   C46       1.0  0.8402115473253341  0.5102882479357272  0.27262497288412224  1.0000
  C   C47       1.0  0.5085013791063837  0.16048348606869617  0.7042807975237652  1.0000
  C   C48       1.0  0.4914986209540078  0.8395165134117019  0.29571920233216875  1.0000
  N   N1        1.0  0.08517099043647651  0.7691540860300061  0.7834772361784139  1.0000
  N   N2        1.0  0.9148290093482528  0.23084591444255254  0.2165227636798532  1.0000
  O   O1        1.0  0.5229730434441284  0.6390826665496708  0.5426430486836691  1.0000
  O   O2        1.0  0.47702695632723774  0.3609173338890448  0.4573569520102922  1.0000
  O   O3        1.0  0.13583386491712549  0.9063022168503162  0.21964059727425864  1.0000
  O   O4        1.0  0.864166135143266  0.09369778263008165  0.7803594025816755  1.0000
  O   O5        1.0  0.6912971905414022  0.4388648214149113  0.5420066667879665  1.0000
  O   O6        1.0  0.3087028095189895  0.5611351780654866  0.4579933330679674  1.0000
  O   O7        1.0  0.4434669508771032  0.09279662570414421  0.6246022612909947  1.0000
  O   O8        1.0  0.5565330502701984  0.9072033737742697  0.3753977385648271  1.0000
  F   F1        1.0  0.1784892687970684  0.3701801256614985  0.6771764094367443  1.0000
  F   F2        1.0  0.8215107312633231  0.6298198738188996  0.32282359041918973  1.0000
  F   F3        1.0  0.28090596880446095  0.5366837514900368  0.6982894135059177  1.0000
  F   F4        1.0  0.7190940312559306  0.4633162479903612  0.30171058635001635  1.0000
  F   F5        1.0  0.1681960654553887  0.46157097381182466  0.8405264708615309  1.0000
  F   F6        1.0  0.8318039346050029  0.5384290256685732  0.15947352899440326  1.0000
  Cl  Cl1       1.0  0.6015839304507394  0.8096646376187255  0.9661530456466254  1.0000
  Cl  Cl2       1.0  0.39841606960965215  0.19033536186167244  0.03384695420930871  1.0000
  Cl  Cl3       1.0  0.5954786175331784  0.42985230581749545  0.8355482447046114  1.0000
  Cl  Cl4       1.0  0.40452138361412304  0.5701476936609184  0.16445175515121035  1.0000
