data_image0
_chemical_formula_structural       H68C60N12O12S4Cl4
_chemical_formula_sum              "H68 C60 N12 O12 S4 Cl4"
_cell_length_a       18.875278763140077
_cell_length_b       8.429873001222878
_cell_length_c       10.571246665604054
_cell_angle_alpha    90.0
_cell_angle_beta     104.72847462718676
_cell_angle_gamma    90.0

_space_group_name_H-M_alt    "P 1"
_space_group_IT_number       1

loop_
  _space_group_symop_operation_xyz
  'x, y, z'

loop_
  _atom_site_type_symbol
  _atom_site_label
  _atom_site_symmetry_multiplicity
  _atom_site_fract_x
  _atom_site_fract_y
  _atom_site_fract_z
  _atom_site_occupancy
  H   H1        1.0  0.33134758925502045  0.5509656633411009  0.689301258470688  1.0000
  H   H2        1.0  0.6686524108244444  0.0509656634136333  0.8106987406509347  1.0000
  H   H3        1.0  0.6686524107400387  0.4490343365138343  0.3106987411922142  1.0000
  H   H4        1.0  0.33134758917061474  0.9490343364413019  0.18930125901196743  1.0000
  H   H5        1.0  0.21285107439805898  0.5103853580446421  0.5307739490355826  1.0000
  H   H6        1.0  0.7871489258198741  0.010385358117174478  0.9692260510641404  1.0000
  H   H7        1.0  0.7871489255970002  0.4896146418102931  0.4692260506273197  1.0000
  H   H8        1.0  0.21285107417518523  0.9896146417377607  0.03077394859876194  1.0000
  H   H9        1.0  0.25706437970547746  0.6837187475023521  0.9490837297144429  1.0000
  H   H10       1.0  0.7429356205124553  0.18371874757488452  0.5509162703852798  1.0000
  H   H11       1.0  0.7429356202895815  0.3162812523525831  0.05091626994845923  1.0000
  H   H12       1.0  0.2570643796210717  0.8162812534663082  0.4490837302557224  1.0000
  H   H13       1.0  0.2726348664634379  0.48812465376442604  0.9019730961499451  1.0000
  H   H14       1.0  0.7273651337544951  0.9881246536918935  0.5980269039497778  1.0000
  H   H15       1.0  0.7273651335316212  0.5118753460905092  0.09802690351295709  1.0000
  H   H16       1.0  0.2726348663790321  0.01187534616304159  0.4019730966912245  1.0000
  H   H17       1.0  0.378805423702659  0.4643205715474234  0.10203881314752676  1.0000
  H   H18       1.0  0.6211945762079942  0.964320571474891  0.39796118705665484  1.0000
  H   H19       1.0  0.6211945764308681  0.5356794294937693  0.8979611874934754  1.0000
  H   H20       1.0  0.3788054237870648  0.035679428380044204  0.6020388126062475  1.0000
  H   H21       1.0  0.36183923526721073  0.6597293006897293  0.14707861201428776  1.0000
  H   H22       1.0  0.6381607646434426  0.15972930076226183  0.3529213881898938  1.0000
  H   H23       1.0  0.6381607647278484  0.34027069916520575  0.8529213876486144  1.0000
  H   H24       1.0  0.36183923549008445  0.8402706990926734  0.6470786124511084  1.0000
  H   H25       1.0  0.406110992111544  0.5650209782886466  0.89532960292957  1.0000
  H   H26       1.0  0.5938890081063889  0.06502097836117901  0.6046703971701529  1.0000
  H   H27       1.0  0.5938890078835152  0.43497902156628854  0.10467039673333221  1.0000
  H   H28       1.0  0.4061109918886702  0.9349790214937561  0.39532960249274934  1.0000
  H   H29       1.0  0.4629294916365311  0.6601906219930795  0.03287466778963116  1.0000
  H   H30       1.0  0.5370705082741224  0.16019062206561194  0.46712533241455045  1.0000
  H   H31       1.0  0.537070508358528  0.33980937786185567  0.967125331873271  1.0000
  H   H32       1.0  0.46292949185940485  0.8398093777893233  0.5328746682264519  1.0000
  H   H33       1.0  0.38603146771418634  0.7620301028340676  0.9350451326933328  1.0000
  H   H34       1.0  0.6139685325037465  0.2620301029066  0.56495486740639  1.0000
  H   H35       1.0  0.6139685324193408  0.23796989702086754  0.06495486794766941  1.0000
  H   H36       1.0  0.38603146749131256  0.7379698969483351  0.4350451322565122  1.0000
  H   H37       1.0  0.4404352934026915  0.2945931391421613  0.43917332822327326  1.0000
  H   H38       1.0  0.5595647063694938  0.7945931402558863  0.060826671002808294  1.0000
  H   H39       1.0  0.5595647065923676  0.7054068607127739  0.5608266714396288  1.0000
  H   H40       1.0  0.4404352936255652  0.20540686078530632  0.9391733286600938  1.0000
  H   H41       1.0  0.31993387681406565  0.252874120368215  0.27762230412393935  1.0000
  H   H42       1.0  0.6800661230965876  0.7528741202956826  0.22237769608024222  1.0000
  H   H43       1.0  0.6800661227894577  0.7471258794867202  0.7223776965155821  1.0000
  H   H44       1.0  0.3199338768984714  0.24712587955925258  0.77762230358266  1.0000
  H   H45       1.0  0.1265063847260518  0.6075024011936003  0.26073447714241615  1.0000
  H   H46       1.0  0.8734936151846016  0.10750240126613267  0.23926552306176546  1.0000
  H   H47       1.0  0.8734936154074752  0.3924975986613349  0.7392655234985861  1.0000
  H   H48       1.0  0.1265063848104576  0.8924975985888025  0.7607344766011368  1.0000
  H   H49       1.0  0.21938104824208393  0.38773062767681704  0.06311547025734783  1.0000
  H   H50       1.0  0.7806189521985731  0.8877306276042847  0.43688452994831445  1.0000
  H   H51       1.0  0.7806189517529752  0.612269372178118  0.9368845294055543  1.0000
  H   H52       1.0  0.21938104793495394  0.11226937225065055  0.5631154706926877  1.0000
  H   H53       1.0  0.12090561485138449  0.5877041278417018  0.743548000126777  1.0000
  H   H54       1.0  0.8790943848365447  0.08770412791423413  0.7564519999714652  1.0000
  H   H55       1.0  0.8790943852821426  0.4122958720132335  0.2564520005142253  1.0000
  H   H56       1.0  0.12090561515851442  0.912295871940701  0.24354799969143695  1.0000
  H   H57       1.0  0.06462097081619672  0.38528917215346403  0.8568121369010628  1.0000
  H   H58       1.0  0.9353790294017361  0.8852891720809316  0.6431878631986601  1.0000
  H   H59       1.0  0.9353790293173303  0.6147108277014711  0.1431878637399394  1.0000
  H   H60       1.0  0.06462097059332295  0.11471082777400356  0.3568121364642422  1.0000
  H   H61       1.0  0.04019953905963993  0.9550809316856912  0.9240417606626202  1.0000
  H   H62       1.0  0.9598004606282892  0.45508093175822356  0.575958239435622  1.0000
  H   H63       1.0  0.9598004609354192  0.044919068169244  0.075958239000282  1.0000
  H   H64       1.0  0.04019953897523414  0.5449190680967116  0.4240417612038995  1.0000
  H   H65       1.0  0.9783425380091997  0.7701709704355184  0.044728497922328005  1.0000
  H   H66       1.0  0.021657461901453595  0.27017097050805083  0.4552715022818536  1.0000
  H   H67       1.0  0.021657461985859345  0.22982902941941677  0.9552715017405742  1.0000
  H   H68       1.0  0.9783425380936055  0.7298290293468843  0.5447284973810487  1.0000
  C   C1        1.0  0.39260681032351374  0.4219436021733678  0.5741932732077706  1.0000
  C   C2        1.0  0.6073931893644153  0.9219436021008354  0.9258067268904716  1.0000
  C   C3        1.0  0.6073931898100133  0.5780563976815674  0.4258067274332316  1.0000
  C   C4        1.0  0.39260681010063997  0.0780563977540998  0.07419327277094993  1.0000
  C   C5        1.0  0.32912885976364353  0.4838495383510891  0.6004752713297027  1.0000
  C   C6        1.0  0.6708711404542893  0.9838495382785568  0.8995247287700202  1.0000
  C   C7        1.0  0.6708711402314155  0.516150461503846  0.3995247283331996  1.0000
  C   C8        1.0  0.3291288596792378  0.01615046157637843  0.10047527187098201  1.0000
  C   C9        1.0  0.26198208047526017  0.4607741776698806  0.5104858247755085  1.0000
  C   C10       1.0  0.738017919212669  0.9607741787836056  0.9895141753227339  1.0000
  C   C11       1.0  0.738017919519799  0.5392258221850545  0.4895141748873938  1.0000
  C   C12       1.0  0.26198208092085806  0.03922582225758699  0.010485825318268542  1.0000
  C   C13       1.0  0.25926047935811175  0.3760378323066257  0.3957447139677393  1.0000
  C   C14       1.0  0.7407395209440772  0.8760378322340933  0.10425528525982292  1.0000
  C   C15       1.0  0.7407395206369475  0.6239621675483095  0.6042552856951628  1.0000
  C   C16       1.0  0.2592604790509818  0.1239621676208419  0.8957447144030793  1.0000
  C   C17       1.0  0.20042468641514033  0.6020442205076841  0.13784026945245742  1.0000
  C   C18       1.0  0.799575313495513  0.1020442205802166  0.36215973075172414  1.0000
  C   C19       1.0  0.799575313049915  0.39795578053350844  0.8621597302089642  1.0000
  C   C20       1.0  0.2004246866380141  0.8979557804609761  0.6378402698892781  1.0000
  C   C21       1.0  0.2783494463773874  0.5669557962862172  0.9867789838184624  1.0000
  C   C22       1.0  0.7216505533105418  0.06695579635874956  0.5132210162797798  1.0000
  C   C23       1.0  0.7216505536176717  0.433044203568718  0.013221015844439849  1.0000
  C   C24       1.0  0.27834944682298535  0.9330442034961857  0.4867789843612224  1.0000
  C   C25       1.0  0.35865753394498173  0.5814675831164878  0.062491446022652906  1.0000
  C   C26       1.0  0.6413424659656717  0.08146758318902017  0.43750855418152873  1.0000
  C   C27       1.0  0.6413424660500774  0.41853241673844743  0.9375085536402493  1.0000
  C   C28       1.0  0.35865753402938744  0.9185324166659149  0.5624914454813735  1.0000
  C   C29       1.0  0.4058579300927376  0.6458406691548277  0.9767708991028773  1.0000
  C   C30       1.0  0.5941420695951917  0.1458406692273602  0.523229100995365  1.0000
  C   C31       1.0  0.5941420699023215  0.3541593307001074  0.02322910056002502  1.0000
  C   C32       1.0  0.40585793053833547  0.854159330627575  0.4767708996456372  1.0000
  C   C33       1.0  0.3901952894265234  0.3395799841331815  0.4584280479481795  1.0000
  C   C34       1.0  0.6098047110141337  0.8395799840606492  0.041571952257482794  1.0000
  C   C35       1.0  0.6098047105685357  0.6604200157217537  0.5415719517147228  1.0000
  C   C36       1.0  0.3901952891193934  0.16042001579428608  0.9584280483835195  1.0000
  C   C37       1.0  0.3229338916340092  0.31681674321933107  0.3683079481064984  1.0000
  C   C38       1.0  0.6770661081381761  0.8168167431467986  0.13169205111958318  1.0000
  C   C39       1.0  0.6770661083610499  0.6831832566356041  0.6316920515564038  1.0000
  C   C40       1.0  0.322933891856883  0.18318325670813654  0.868307948543319  1.0000
  C   C41       1.0  0.088307759538147  0.6220377554014543  0.8110099332604466  1.0000
  C   C42       1.0  0.9116922400113143  0.12203775547398671  0.6889900658596957  1.0000
  C   C43       1.0  0.9116922399269084  0.3779622444534809  0.188990066400975  1.0000
  C   C44       1.0  0.08830775998374497  0.8779622443809484  0.31100993380320663  1.0000
  C   C45       1.0  0.05634801338996574  0.5097007154647167  0.8751027169558355  1.0000
  C   C46       1.0  0.9436519868279671  0.009700715537249162  0.6248972831438873  1.0000
  C   C47       1.0  0.9436519867435614  0.49029928439021847  0.1248972836851666  1.0000
  C   C48       1.0  0.056348013167092  0.990299284317686  0.375102716519015  1.0000
  C   C49       1.0  0.01640613270192799  0.5584104350465461  0.9634973986371659  1.0000
  C   C50       1.0  0.9835938675160049  0.05841043511907844  0.536502601462557  1.0000
  C   C51       1.0  0.9835938674315992  0.4415895648083891  0.036502602003836364  1.0000
  C   C52       1.0  0.01640613247905423  0.9415895647358566  0.4634973982003453  1.0000
  C   C53       1.0  0.043347795573277836  0.8270365590310358  0.9121597030982563  1.0000
  C   C54       1.0  0.9566522041146513  0.32703655910356827  0.587840296999986  1.0000
  C   C55       1.0  0.9566522044217812  0.17296344082389933  0.08784029656464591  1.0000
  C   C56       1.0  0.0433477958804078  0.6729634407513669  0.41215970266291635  1.0000
  C   C57       1.0  0.009512377458490661  0.722611541018036  0.9798980267619866  1.0000
  C   C58       1.0  0.9904876227594422  0.22261154109056844  0.5201019733377361  1.0000
  C   C59       1.0  0.9904876225365684  0.27738845883689917  0.020101972900915515  1.0000
  C   C60       1.0  0.009512377374084932  0.7773884587643668  0.4798980273032661  1.0000
  N   N1        1.0  0.1570769390520804  0.5271225686739757  0.21094878896792  1.0000
  N   N2        1.0  0.8429230613885766  0.02712256874650809  0.2890512112377423  1.0000
  N   N3        1.0  0.8429230609429789  0.4728774311809595  0.7890512106949824  1.0000
  N   N4        1.0  0.15707693860648242  0.9728774311084271  0.71094878842516  1.0000
  N   N5        1.0  0.23214384976839128  0.5051919405407664  0.0660540040439272  1.0000
  N   N6        1.0  0.767856150142262  0.0051919406132987875  0.4339459961602544  1.0000
  N   N7        1.0  0.7678561503651359  0.4948080593141688  0.933945996597075  1.0000
  N   N8        1.0  0.232143849852797  0.9948080592416364  0.5660540035026478  1.0000
  N   N9        1.0  0.08243981972290482  0.7784929641345721  0.8295276107208989  1.0000
  N   N10       1.0  0.9175601799650245  0.27849296420710457  0.6704723893773434  1.0000
  N   N11       1.0  0.9175601797421507  0.22150703690662052  0.17047238894052277  1.0000
  N   N12       1.0  0.08243982016850278  0.7215070368340881  0.3295276112636588  1.0000
  O   O1        1.0  0.18170445058856835  0.2342436593900701  0.1872501196903206  1.0000
  O   O2        1.0  0.818295549322085  0.7342436593175377  0.31274988051386104  1.0000
  O   O3        1.0  0.8182955494064909  0.7657563416511225  0.8127498799725816  1.0000
  O   O4        1.0  0.1817044508114421  0.26575634053739744  0.6872501201271413  1.0000
  O   O5        1.0  0.1178115271973483  0.33502521088874115  0.35203462781352807  1.0000
  O   O6        1.0  0.8821884731048408  0.8350252108162087  0.14796537141403418  1.0000
  O   O7        1.0  0.8821884727977108  0.664974788966194  0.6479653718493742  1.0000
  O   O8        1.0  0.11781152689021832  0.16497478903872645  0.852034628248868  1.0000
  O   O9        1.0  0.2060365690447866  0.7486345926070904  0.1405226141179751  1.0000
  O   O10       1.0  0.7939634308658667  0.24863459267962285  0.3594773860862065  1.0000
  O   O11       1.0  0.7939634309502724  0.2513654072478448  0.8594773855449273  1.0000
  O   O12       1.0  0.20603656926766034  0.7513654071753124  0.6405226145547958  1.0000
  S   S1        1.0  0.1732445298165342  0.3541669215617954  0.28063988912951865  1.0000
  S   S2        1.0  0.8267554700941191  0.854166921489263  0.21936011107466297  1.0000
  S   S3        1.0  0.8267554701785249  0.6458330782931397  0.7193601105333836  1.0000
  S   S4        1.0  0.17324453003940796  0.14583307836567216  0.7806398895663393  1.0000
  Cl  Cl1       1.0  0.47620125905720423  0.4477414404051481  0.6871176723571679  1.0000
  Cl  Cl2       1.0  0.5237987404922568  0.9477414403326156  0.8128823267629742  1.0000
  Cl  Cl3       1.0  0.5237987409378548  0.5522585594497871  0.3128823273057343  1.0000
  Cl  Cl4       1.0  0.47620125950280223  0.05225855952231951  0.18711767289992798  1.0000
