data_image0
_chemical_formula_structural       H96C88N16F24P4Br8
_chemical_formula_sum              "H96 C88 N16 F24 P4 Br8"
_cell_length_a       8.663765260262062
_cell_length_b       19.939815062594864
_cell_length_c       14.296864412079879
_cell_angle_alpha    90.0
_cell_angle_beta     94.42395484815688
_cell_angle_gamma    90.0

_space_group_name_H-M_alt    "P 1"
_space_group_IT_number       1

loop_
  _space_group_symop_operation_xyz
  'x, y, z'

loop_
  _atom_site_type_symbol
  _atom_site_label
  _atom_site_symmetry_multiplicity
  _atom_site_fract_x
  _atom_site_fract_y
  _atom_site_fract_z
  _atom_site_occupancy
  H   H1        1.0  0.24057458983933586  0.42102449664884195  0.5426530421766632  1.0000
  H   H2        1.0  0.7594254094038324  0.42102449664884195  0.9573469578495752  1.0000
  H   H3        1.0  0.740574589671772  0.9210244970852837  0.5426530424300744  1.0000
  H   H4        1.0  0.2594254095713962  0.9210244970852837  0.9573469575961638  1.0000
  H   H5        1.0  0.7594254094885367  0.5789755032210232  0.457346957542079  1.0000
  H   H6        1.0  0.24057459000783574  0.5789755032210232  0.04265304257070333  1.0000
  H   H7        1.0  0.25942540973989614  0.07897550328609063  0.4573469579902041  1.0000
  H   H8        1.0  0.7405745897564764  0.07897550328609063  0.04265304212257824  1.0000
  H   H9        1.0  0.9860879425233869  0.3658614549382204  0.517863092155393  1.0000
  H   H10       1.0  0.013912057874426563  0.3658614549382204  0.9821369078741896  1.0000
  H   H11       1.0  0.4860879426909506  0.8658614548731529  0.5178630919019818  1.0000
  H   H12       1.0  0.5139120577068627  0.8658614548731529  0.9821369081276008  1.0000
  H   H13       1.0  0.013912058042926499  0.6341385449316447  0.4821369082682297  1.0000
  H   H14       1.0  0.9860879426080911  0.6341385449316447  0.017863091847896796  1.0000
  H   H15       1.0  0.513912057791567  0.13413854499671216  0.4821369078201046  1.0000
  H   H16       1.0  0.4860879417048054  0.13413854499671216  0.017863092292677667  1.0000
  H   H17       1.0  0.17084663999464852  0.2293521713036822  0.32014954114759897  1.0000
  H   H18       1.0  0.829153360656369  0.2293521713036822  0.1798504589685275  1.0000
  H   H19       1.0  0.6708466397432891  0.7293521712386148  0.3201495406994739  1.0000
  H   H20       1.0  0.3291533597530834  0.7293521712386148  0.1798504594133084  1.0000
  H   H21       1.0  0.8291533605716648  0.770647828566183  0.6798504592760237  1.0000
  H   H22       1.0  0.17084663982614862  0.770647828566183  0.820149540753559  1.0000
  H   H23       1.0  0.32915335958458336  0.2706478286312504  0.6798504590192682  1.0000
  H   H24       1.0  0.6708466396585848  0.2706478286312504  0.82014954100697  1.0000
  H   H25       1.0  0.4283807039386299  0.28078580329979247  0.34960995038672704  1.0000
  H   H26       1.0  0.5716192955577425  0.28078580329979247  0.15039004972605524  1.0000
  H   H27       1.0  0.9283807037710662  0.7807858037362343  0.3496099506401382  1.0000
  H   H28       1.0  0.0716192957253063  0.7807858037362343  0.15039004947264406  1.0000
  H   H29       1.0  0.5716192953892425  0.7192141965700727  0.650390049332015  1.0000
  H   H30       1.0  0.4283807038539256  0.7192141965700727  0.8496099506942232  1.0000
  H   H31       1.0  0.071619295640602  0.21921419663514016  0.6503900497801403  1.0000
  H   H32       1.0  0.9283807036025662  0.21921419663514016  0.8496099502460981  1.0000
  H   H33       1.0  0.8062116821501023  0.4706149721319842  0.530211828805571  1.0000
  H   H34       1.0  0.19378831824771112  0.4706149721319842  0.9697881712240115  1.0000
  H   H35       1.0  0.30621168231766605  0.9706149720669167  0.53021182855216  1.0000
  H   H36       1.0  0.6937883180801473  0.9706149720669167  0.9697881714774227  1.0000
  H   H37       1.0  0.19378831841621105  0.529385027737881  0.4697881716180516  1.0000
  H   H38       1.0  0.8062116822348065  0.529385027737881  0.030211828498074918  1.0000
  H   H39       1.0  0.6937883181648516  0.02938502780294843  0.4697881711699265  1.0000
  H   H40       1.0  0.3062116824023703  0.02938502780294843  0.030211828244663723  1.0000
  H   H41       1.0  0.8675819455882354  0.3887270912828269  0.29756234978728124  1.0000
  H   H42       1.0  0.13241805506278226  0.3887270912828269  0.20243765032884528  1.0000
  H   H43       1.0  0.36758194468494965  0.8887270912177595  0.29756235023206207  1.0000
  H   H44       1.0  0.6324180548114229  0.8887270912177595  0.2024376498807202  1.0000
  H   H45       1.0  0.13241805489428232  0.6112729090885475  0.7024376499348053  1.0000
  H   H46       1.0  0.8675819455035311  0.6112729090885475  0.7975623500947775  1.0000
  H   H47       1.0  0.6324180547267185  0.11127290915361489  0.7024376501882164  1.0000
  H   H48       1.0  0.36758194567109487  0.11127290915361489  0.7975623498413662  1.0000
  H   H49       1.0  0.9183527747502139  0.4688088681191362  0.3465365504552334  1.0000
  H   H50       1.0  0.08164722590080374  0.4688088681191362  0.1534634496608931  1.0000
  H   H51       1.0  0.41835277376313257  0.9688088685555779  0.346536550198478  1.0000
  H   H52       1.0  0.5816472257332399  0.9688088685555779  0.1534634499143043  1.0000
  H   H53       1.0  0.08164722573230379  0.5311911317507291  0.6534634492668531  1.0000
  H   H54       1.0  0.9183527745817139  0.5311911317507291  0.8465365500611932  1.0000
  H   H55       1.0  0.5816472255647399  0.03119113181579645  0.6534634495202643  1.0000
  H   H56       1.0  0.4183527748330733  0.03119113181579645  0.8465365505093184  1.0000
  H   H57       1.0  0.7639768586663067  0.46152516716483555  0.2591049333322186  1.0000
  H   H58       1.0  0.23602314083006573  0.46152516716483555  0.24089506678056366  1.0000
  H   H59       1.0  0.26397685883387045  0.9615251670997681  0.2591049330788074  1.0000
  H   H60       1.0  0.7360231418171471  0.9615251670997681  0.24089506703731908  1.0000
  H   H61       1.0  0.2360231407453614  0.5384748327050297  0.7408950670880599  1.0000
  H   H62       1.0  0.7639768584978068  0.5384748327050297  0.7591049329381785  1.0000
  H   H63       1.0  0.7360231417324429  0.03847483277009707  0.7408950673448154  1.0000
  H   H64       1.0  0.2639768586653706  0.03847483277009707  0.7591049326847674  1.0000
  H   H65       1.0  0.4447137816025707  0.4664505167576828  0.6308136037543918  1.0000
  H   H66       1.0  0.5552862187952426  0.4664505167576828  0.8691863962751907  1.0000
  H   H67       1.0  0.9447137813512113  0.9664505166926154  0.6308136033062667  1.0000
  H   H68       1.0  0.05528621789195693  0.9664505166926154  0.8691863967199716  1.0000
  H   H69       1.0  0.5552862178090974  0.5335494836136917  0.3691863966658866  1.0000
  H   H70       1.0  0.444713781687275  0.5335494836136917  0.1308136034468957  1.0000
  H   H71       1.0  0.055286217976661244  0.03354948367875904  0.36918639641247536  1.0000
  H   H72       1.0  0.9447137815197113  0.03354948367875904  0.13081360370030687  1.0000
  H   H73       1.0  0.6322937663850524  0.43391266031501774  0.6698409313744447  1.0000
  H   H74       1.0  0.3677062328581157  0.43391266031501774  0.8301590686517937  1.0000
  H   H75       1.0  0.13229376655261627  0.9339126602499503  0.6698409311210336  1.0000
  H   H76       1.0  0.8677062338451971  0.9339126602499503  0.8301590689085491  1.0000
  H   H77       1.0  0.3677062330266157  0.5660873400563566  0.33015906904583375  1.0000
  H   H78       1.0  0.6322937664697568  0.5660873400563566  0.16984093106694856  1.0000
  H   H79       1.0  0.8677062327752563  0.06608734012142399  0.3301590685977086  1.0000
  H   H80       1.0  0.1322937667211162  0.06608734012142399  0.16984093151507365  1.0000
  H   H81       1.0  0.4741896902765703  0.37880731322174294  0.6418382330539363  1.0000
  H   H82       1.0  0.5258103100374474  0.37880731322174294  0.8581617662741099  1.0000
  H   H83       1.0  0.9741896901090065  0.8788073131566755  0.6418382333073476  1.0000
  H   H84       1.0  0.02581031028880684  0.8788073131566755  0.8581617667222351  1.0000
  H   H85       1.0  0.5258103102059474  0.6211926866481223  0.3581617666681501  1.0000
  H   H86       1.0  0.4741896904450702  0.6211926866481223  0.14183823344797641  1.0000
  H   H87       1.0  0.025810310373511145  0.12119268671318968  0.3581617664147389  1.0000
  H   H88       1.0  0.9741896902775065  0.12119268671318968  0.14183823370138762  1.0000
  H   H89       1.0  0.5178771281124864  0.3893886209890248  0.31288875989064524  1.0000
  H   H90       1.0  0.4821228713838861  0.3893886209890248  0.1871112402221371  1.0000
  H   H91       1.0  0.01787712828005018  0.8893886209239573  0.312888759637234  1.0000
  H   H92       1.0  0.9821228712163224  0.8893886209239573  0.18711124047554825  1.0000
  H   H93       1.0  0.4821228712153861  0.6106113788808404  0.687111239828097  1.0000
  H   H94       1.0  0.5178771280277822  0.6106113788808404  0.8128887601981415  1.0000
  H   H95       1.0  0.9821228710478224  0.11061137894590775  0.687111240081508  1.0000
  H   H96       1.0  0.01787712819534587  0.11061137894590775  0.8128887599447302  1.0000
  C   C1        1.0  0.22575321754165653  0.3796141461813013  0.4934437004648007  1.0000
  C   C2        1.0  0.7742467831093611  0.3796141461813013  0.006556299651325818  1.0000
  C   C3        1.0  0.7257532173740927  0.8796141461162339  0.49344370071821186  1.0000
  C   C4        1.0  0.27424678327692487  0.8796141461162339  0.006556299397914621  1.0000
  C   C5        1.0  0.7742467829408611  0.6203858536885639  0.5065562992572857  1.0000
  C   C6        1.0  0.22575321745695226  0.6203858536885639  0.9934437007722969  1.0000
  C   C7        1.0  0.27424678319222057  0.12038585375363131  0.5065562997054108  1.0000
  C   C8        1.0  0.7257532172055927  0.12038585375363131  0.9934437003241717  1.0000
  C   C9        1.0  0.08188348283513791  0.3487847679714112  0.4791357162641717  1.0000
  C   C10       1.0  0.9181165166612345  0.3487847679714112  0.020864283848610627  1.0000
  C   C11       1.0  0.5818834837384236  0.8487847679063437  0.4791357158193908  1.0000
  C   C12       1.0  0.4181165168287983  0.8487847679063437  0.02086428359519943  1.0000
  C   C13       1.0  0.9181165165765303  0.651215231898454  0.5208642841561069  1.0000
  C   C14       1.0  0.0818834838212831  0.651215231898454  0.9791357158734758  1.0000
  C   C15       1.0  0.41811651674409406  0.15121523196352138  0.5208642839026956  1.0000
  C   C16       1.0  0.5818834836537192  0.15121523196352138  0.979135716126887  1.0000
  C   C17       1.0  0.062266335511867485  0.29564701886622397  0.41553711252246806  1.0000
  C   C18       1.0  0.93773366513915  0.29564701886622397  0.08446288759365843  1.0000
  C   C19       1.0  0.5622663353443037  0.7956470188011566  0.41553711277587924  1.0000
  C   C20       1.0  0.43773366415206877  0.7956470188011566  0.08446288733690302  1.0000
  C   C21       1.0  0.93773366497065  0.7043529810036413  0.5844628871996183  1.0000
  C   C22       1.0  0.062266335427163165  0.7043529810036413  0.9155371128299642  1.0000
  C   C23       1.0  0.43773366406736447  0.20435298106870867  0.5844628876443991  1.0000
  C   C24       1.0  0.5622663351758037  0.20435298106870867  0.9155371123818391  1.0000
  C   C25       1.0  0.1856072998885901  0.271861998869239  0.3676859065108647  1.0000
  C   C26       1.0  0.8143926996077823  0.271861998869239  0.13231409360191762  1.0000
  C   C27       1.0  0.6856072997210264  0.7718619988041716  0.36768590676427587  1.0000
  C   C28       1.0  0.3143926997753462  0.7718619988041716  0.1323140933485064  1.0000
  C   C29       1.0  0.8143926994392824  0.7281380010006262  0.6323140932078775  1.0000
  C   C30       1.0  0.1856072998038858  0.7281380010006262  0.8676859068183609  1.0000
  C   C31       1.0  0.31439269960684624  0.2281380010656936  0.6323140929544663  1.0000
  C   C32       1.0  0.6856072995525264  0.2281380010656936  0.8676859063702357  1.0000
  C   C33       1.0  0.33013136665378884  0.3020212274334051  0.38255352816085375  1.0000
  C   C34       1.0  0.6698686328425836  0.3020212274334051  0.11744647195192848  1.0000
  C   C35       1.0  0.8301313676408703  0.8020212273683377  0.38255352841760915  1.0000
  C   C36       1.0  0.16986863301014743  0.8020212273683377  0.11744647169851728  1.0000
  C   C37       1.0  0.6698686326740837  0.6979787729379693  0.6174464715578885  1.0000
  C   C38       1.0  0.3301313665690845  0.6979787729379693  0.8825535284683499  1.0000
  C   C39       1.0  0.16986863284164747  0.19797877300303668  0.617446471304477  1.0000
  C   C40       1.0  0.8301313674723703  0.19797877300303668  0.882553528023569  1.0000
  C   C41       1.0  0.3502172802021322  0.35644415947131036  0.44497870782385474  1.0000
  C   C42       1.0  0.6497827192942403  0.35644415947131036  0.055021292288927555  1.0000
  C   C43       1.0  0.8502172799507728  0.856444159406243  0.4449787073757296  1.0000
  C   C44       1.0  0.14978271954559969  0.856444159406243  0.05502129273705264  1.0000
  C   C45       1.0  0.649782719209536  0.6435558403985548  0.5550212925964237  1.0000
  C   C46       1.0  0.3502172800336323  0.6435558403985548  0.9449787074298146  1.0000
  C   C47       1.0  0.14978271937709975  0.14355584046362224  0.5550212923430126  1.0000
  C   C48       1.0  0.8502172798660684  0.14355584046362224  0.9449787076832258  1.0000
  C   C49       1.0  0.5765596455972812  0.4225966320925055  0.5247075550347827  1.0000
  C   C50       1.0  0.4234403548005321  0.4225966320925055  0.9752924449947998  1.0000
  C   C51       1.0  0.0765596458486407  0.922596632027438  0.5247075554829078  1.0000
  C   C52       1.0  0.9234403545491726  0.922596632027438  0.9752924445466746  1.0000
  C   C53       1.0  0.42344035488523635  0.5774033677773598  0.47529244468730364  1.0000
  C   C54       1.0  0.5765596457657812  0.5774033677773598  0.024707555428822848  1.0000
  C   C55       1.0  0.9234403547176726  0.07740336784242716  0.4752924449407148  1.0000
  C   C56       1.0  0.07655964593334501  0.07740336784242716  0.024707555175411653  1.0000
  C   C57       1.0  0.7138939124921856  0.44521316331831273  0.4889057929817121  1.0000
  C   C58       1.0  0.2861060870041868  0.44521316331831273  0.011094207131070172  1.0000
  C   C59       1.0  0.21389391265974944  0.9452131637547545  0.488905792728301  1.0000
  C   C60       1.0  0.7861060868366231  0.9452131637547545  0.011094207384481365  1.0000
  C   C61       1.0  0.2861060869194825  0.5547868365515524  0.5110942074385664  1.0000
  C   C62       1.0  0.7138939134783309  0.5547868365515524  0.9889057925910162  1.0000
  C   C63       1.0  0.7861060866681231  0.05478683661661984  0.5110942069904413  1.0000
  C   C64       1.0  0.2138939125750451  0.05478683661661984  0.9889057930357972  1.0000
  C   C65       1.0  0.7132858584839091  0.42634697229201324  0.39535569592395897  1.0000
  C   C66       1.0  0.2867141410124634  0.42634697229201324  0.10464430418882335  1.0000
  C   C67       1.0  0.21328585865147281  0.9263469722269458  0.39535569567054774  1.0000
  C   C68       1.0  0.7867141419995447  0.9263469722269458  0.10464430444557875  1.0000
  C   C69       1.0  0.28671414208240426  0.5736530280793612  0.6046443044996638  1.0000
  C   C70       1.0  0.7132858583154091  0.5736530280793612  0.8953556955299189  1.0000
  C   C71       1.0  0.7867141418310448  0.0736530276429194  0.6046443040515386  1.0000
  C   C72       1.0  0.21328585856676852  0.0736530276429194  0.8953556959780439  1.0000
  C   C73       1.0  0.8217024475105185  0.4367283263492189  0.32128571384905946  1.0000
  C   C74       1.0  0.17829755198585406  0.4367283263492189  0.1787142862637228  1.0000
  C   C75       1.0  0.32170244767808215  0.9367283262841514  0.3212857135956483  1.0000
  C   C76       1.0  0.6782975529729354  0.9367283262841514  0.17871428652047822  1.0000
  C   C77       1.0  0.17829755190114976  0.5632716735206463  0.678714286571219  1.0000
  C   C78       1.0  0.8217024473420185  0.5632716735206463  0.8212857134550194  1.0000
  C   C79       1.0  0.6782975528044354  0.06327167358571371  0.6787142861264381  1.0000
  C   C80       1.0  0.3217024475933779  0.06327167358571371  0.8212857139031444  1.0000
  C   C81       1.0  0.5289909983805989  0.4257936948435831  0.6218635270814542  1.0000
  C   C82       1.0  0.4710090020172144  0.4257936948435831  0.8781364729481286  1.0000
  C   C83       1.0  0.028990997393517643  0.9257936947785158  0.6218635268246987  1.0000
  C   C84       1.0  0.9710090018496504  0.9257936947785158  0.8781364732015396  1.0000
  C   C85       1.0  0.47100900210191865  0.574206305026282  0.37813647264063227  1.0000
  C   C86       1.0  0.5289909984653033  0.574206305026282  0.12186352677395793  1.0000
  C   C87       1.0  0.9710090019343548  0.07420630509134947  0.37813647289404345  1.0000
  C   C88       1.0  0.028990997562017593  0.07420630509134947  0.1218635272187388  1.0000
  N   N1        1.0  0.49369538790463546  0.38944836627734675  0.4529087505488176  1.0000
  N   N2        1.0  0.5063046126625865  0.38944836627734675  0.04709124886577259  1.0000
  N   N3        1.0  0.9936953877370718  0.8894483667137885  0.4529087508022288  1.0000
  N   N4        1.0  0.006304612913945942  0.8894483667137885  0.04709124931389767  1.0000
  N   N5        1.0  0.5063046125778822  0.6105516335925185  0.5470912491732688  1.0000
  N   N6        1.0  0.4936953878199311  0.6105516335925185  0.9529087508563138  1.0000
  N   N7        1.0  0.006304612745446003  0.11055163365758587  0.5470912489198576  1.0000
  N   N8        1.0  0.9936953876523672  0.11055163365758587  0.952908751109725  1.0000
  N   N9        1.0  0.5816245368983947  0.38825771180409957  0.37614692644295605  1.0000
  N   N10       1.0  0.4183754625141821  0.38825771180409957  0.12385307296828992  1.0000
  N   N11       1.0  0.08162453714975412  0.8882577117390321  0.3761469268910812  1.0000
  N   N12       1.0  0.9183754623466184  0.8882577117390321  0.12385307322170111  1.0000
  N   N13       1.0  0.4183754624294779  0.6117422880657656  0.6238530732757861  1.0000
  N   N14       1.0  0.5816245368136903  0.6117422880657656  0.8761469267504521  1.0000
  N   N15       1.0  0.9183754634165593  0.11174228813083303  0.6238530735325415  1.0000
  N   N16       1.0  0.08162453698125417  0.11174228813083303  0.8761469264970411  1.0000
  F   F1        1.0  0.9392731279157126  0.3199343027993869  0.6750543484086456  1.0000
  F   F2        1.0  0.06072687248210085  0.3199343027993869  0.8249456516209371  1.0000
  F   F3        1.0  0.4392731281670719  0.8199343027343194  0.6750543488567706  1.0000
  F   F4        1.0  0.5607268722307415  0.8199343027343194  0.8249456511728119  1.0000
  F   F5        1.0  0.06072687256680515  0.6800656970704784  0.3249456513134409  1.0000
  F   F6        1.0  0.9392731280842124  0.6800656970704784  0.17505434880268564  1.0000
  F   F7        1.0  0.5607268723992413  0.18006569713554574  0.324945651566852  1.0000
  F   F8        1.0  0.4392731282517763  0.18006569713554574  0.17505434854927443  1.0000
  F   F9        1.0  0.16967678300441588  0.3787580790640078  0.7068472192757241  1.0000
  F   F10       1.0  0.8303232173933974  0.3787580790640078  0.7931527807538584  1.0000
  F   F11       1.0  0.6696767827530564  0.8787580789989404  0.706847218827599  1.0000
  F   F12       1.0  0.3303232176447569  0.8787580789989404  0.7931527812019834  1.0000
  F   F13       1.0  0.8303232175618974  0.6212419208058573  0.2931527811478985  1.0000
  F   F14       1.0  0.1696767830891202  0.6212419208058573  0.20684721896822802  1.0000
  F   F15       1.0  0.33032321772946127  0.12124192087092477  0.2931527808944873  1.0000
  F   F16       1.0  0.6696767829215564  0.12124192087092477  0.20684721922163923  1.0000
  F   F17       1.0  0.939433095599932  0.43642609285401934  0.6744372350588331  1.0000
  F   F18       1.0  0.06056690364323622  0.43642609285401934  0.8255627649674052  1.0000
  F   F19       1.0  0.4394330957674958  0.936426092788952  0.6744372348054218  1.0000
  F   F20       1.0  0.5605669046303177  0.936426092788952  0.8255627652241607  1.0000
  F   F21       1.0  0.06056690381173616  0.563573907517355  0.32556276536144535  1.0000
  F   F22       1.0  0.9394330956846364  0.563573907517355  0.1744372347513369  1.0000
  F   F23       1.0  0.5605669035603768  0.06357390708091323  0.3255627649133203  1.0000
  F   F24       1.0  0.4394330959359958  0.06357390708091323  0.174437235199462  1.0000
  P   P1        1.0  0.9999999998310457  0.3779526799191519  0.7500000001104761  1.0000
  P   P2        1.0  0.4999999995796863  0.8779526798540844  0.749999999662351  1.0000
  P   P3        1.0  0.9999999999157501  0.6220473204522224  0.24999999980297993  1.0000
  P   P4        1.0  0.4999999997481863  0.12204732001578071  0.25000000005639117  1.0000
  Br  Br1       1.0  0.8660188770961397  0.25337274012523026  0.3956687262897101  1.0000
  Br  Br2       1.0  0.13398112240023277  0.25337274012523026  0.10433127382307218  1.0000
  Br  Br3       1.0  0.3660188772637035  0.7533727400601629  0.39566872603629893  1.0000
  Br  Br4       1.0  0.633981122232669  0.7533727400601629  0.10433127407648339  1.0000
  Br  Br5       1.0  0.1339811223155285  0.746627259744635  0.6043312741305684  1.0000
  Br  Br6       1.0  0.8660188769276398  0.746627259744635  0.89566872589567  1.0000
  Br  Br7       1.0  0.6339811232188142  0.24662725980970235  0.6043312736857875  1.0000
  Br  Br8       1.0  0.36601887717899917  0.24662725980970235  0.8956687263437951  1.0000
