data_image0
_chemical_formula_structural       H20C24F6PS16
_chemical_formula_sum              "H20 C24 F6 P1 S16"
_cell_length_a       7.479412514325652
_cell_length_b       7.683493474953316
_cell_length_c       16.004107473406165
_cell_angle_alpha    77.13420082705204
_cell_angle_beta     78.00517081745537
_cell_angle_gamma    70.00080632073198

_space_group_name_H-M_alt    "P 1"
_space_group_IT_number       1

loop_
  _space_group_symop_operation_xyz
  'x, y, z'

loop_
  _atom_site_type_symbol
  _atom_site_label
  _atom_site_symmetry_multiplicity
  _atom_site_fract_x
  _atom_site_fract_y
  _atom_site_fract_z
  _atom_site_occupancy
  H   H1        1.0  0.9693877492184583  0.190100069620645  0.8962481255083261  1.0000
  H   H2        1.0  0.030612249745692793  0.8098999303932135  0.10375187477277321  1.0000
  H   H3        1.0  0.8566702444448626  0.03373951073548671  0.8778798316995631  1.0000
  H   H4        1.0  0.1433297558568643  0.9662604892752342  0.12212016858271704  1.0000
  H   H5        1.0  0.7469137300231837  0.28009477307382136  0.8552142871411205  1.0000
  H   H6        1.0  0.2530862689409674  0.7199052269400372  0.14478571313997873  1.0000
  H   H7        1.0  0.17866569028939266  0.7262900066512101  0.7355681911030437  1.0000
  H   H8        1.0  0.8213343088824872  0.27370999359809456  0.26443180853040404  1.0000
  H   H9        1.0  0.9370032458346627  0.8117103485179925  0.7138394902095064  1.0000
  H   H10       1.0  0.0629967544670644  0.18828965149272842  0.2861605100727736  1.0000
  H   H11       1.0  0.9888302380852182  0.8116799876907412  0.8170227466813962  1.0000
  H   H12       1.0  0.011169762216508852  0.18832001231997983  0.18297725360088393  1.0000
  H   H13       1.0  0.33494453248029493  0.3127748108618349  0.10503248001117559  1.0000
  H   H14       1.0  0.6650554664838564  0.6872251891520237  0.8949675202699237  1.0000
  H   H15       1.0  0.5140873657581889  0.4130200339994808  0.11190038159305755  1.0000
  H   H16       1.0  0.48591263320596245  0.5869799660143777  0.8880996186880415  1.0000
  H   H17       1.0  0.7753541786392071  0.12654686777334168  0.08766223284708663  1.0000
  H   H18       1.0  0.22464582032494423  0.8734531322405168  0.9123377674340126  1.0000
  H   H19       1.0  0.6198012311435787  0.15089292198340126  0.011813048749063745  1.0000
  H   H20       1.0  0.3801987678205725  0.8491070780304574  0.9881869515320355  1.0000
  C   C1        1.0  0.8856227539627414  0.1675857637182697  0.8531627448704258  1.0000
  C   C2        1.0  0.1143772456937061  0.8324142351466783  0.14683725476121468  1.0000
  C   C3        1.0  0.03941221623690031  0.8343155842026574  0.7474819583877647  1.0000
  C   C4        1.0  0.9605877840648267  0.16568441580806365  0.25251804189451543  1.0000
  C   C5        1.0  0.9895767758392312  0.17074699094511545  0.7628568258168124  1.0000
  C   C6        1.0  0.010423224670224314  0.8292530093010516  0.23714317381781644  1.0000
  C   C7        1.0  0.057028428958691715  0.02634403967347703  0.717415784426427  1.0000
  C   C8        1.0  0.9429715704900271  0.9736559589560247  0.2825842158528648  1.0000
  C   C9        1.0  0.14348501709740424  0.3068849651846112  0.6128241487138513  1.0000
  C   C10       1.0  0.8565149836888903  0.6931150334417531  0.3871758515666215  1.0000
  C   C11       1.0  0.2063402685471007  0.42377679835426096  0.5435451203426576  1.0000
  C   C12       1.0  0.7936597304170505  0.5762232016595977  0.45645487993844164  1.0000
  C   C13       1.0  0.287330463247277  0.7059598598605357  0.4457343703016456  1.0000
  C   C14       1.0  0.7126695372621785  0.29404014038563153  0.5542656293329832  1.0000
  C   C15       1.0  0.35891476180613024  0.5642030479030774  0.3979393910594516  1.0000
  C   C16       1.0  0.6410852384955967  0.4357969521076435  0.6020606092228286  1.0000
  C   C17       1.0  0.44159101002048884  0.8463462550668474  0.30094285801649323  1.0000
  C   C18       1.0  0.5584089902812382  0.15365374494387374  0.6990571422657869  1.0000
  C   C19       1.0  0.4914578499051689  0.9690050863829601  0.23184818110614916  1.0000
  C   C20       1.0  0.5085421508811259  0.030994912243404192  0.7681518191743235  1.0000
  C   C21       1.0  0.47528469775890725  0.2832654757205661  0.12468988977155429  1.0000
  C   C22       1.0  0.5247153025428198  0.7167345242901549  0.8753101105107258  1.0000
  C   C23       1.0  0.6308400721421744  0.13123060544249082  0.08084624212429996  1.0000
  C   C24       1.0  0.36915992815955273  0.8687693945682302  0.9191537581579801  1.0000
  F   F1        1.0  0.9865302267345092  0.4955648938240423  0.8998148732757165  1.0000
  F   F2        1.0  0.013469774051785347  0.504435104802322  0.10018512700475612  1.0000
  F   F3        1.0  0.22247489062666378  0.5033928114460913  0.9711064591751422  1.0000
  F   F4        1.0  0.7775251083374874  0.49660718856776725  0.02889354110595705  1.0000
  F   F5        1.0  0.07707210260979949  0.26869080909727494  0.019541271632621645  1.0000
  F   F6        1.0  0.9229278965620803  0.7313091911520297  0.9804587280008262  1.0000
  P   P1        1.0  0.9999999993811497  0.5000000003605788  1.0521418980868326e-10  1.0000
  S   S1        1.0  0.028059771735114907  0.38263303732657394  0.7103377222775175  1.0000
  S   S2        1.0  0.9719402287743405  0.6173669629195934  0.28966227735711125  1.0000
  S   S3        1.0  0.175796609763289  0.07180918819597182  0.6123815650537217  1.0000
  S   S4        1.0  0.8242033905384382  0.9281908118147493  0.3876184352285583  1.0000
  S   S5        1.0  0.166598460479609  0.6604531046229806  0.548604794589326  1.0000
  S   S6        1.0  0.8334015384845421  0.33954689539087796  0.4513952056917733  1.0000
  S   S7        1.0  0.32233191106710973  0.35074229566442255  0.4443723001428934  1.0000
  S   S8        1.0  0.6776680894423458  0.6492577045817447  0.5556276994917352  1.0000
  S   S9        1.0  0.33007023574894667  0.9177102098442856  0.401489148054782  1.0000
  S   S10       1.0  0.6699297645527803  0.08228979016643552  0.5985108522274981  1.0000
  S   S11       1.0  0.4906265519955629  0.606586551809806  0.2968974120340161  1.0000
  S   S12       1.0  0.5093734469685884  0.3934134482040525  0.7031025882470832  1.0000
  S   S13       1.0  0.46144450606613724  0.20014962330862887  0.2405651168825692  1.0000
  S   S14       1.0  0.5385554931057425  0.7998503769406758  0.7594348827508786  1.0000
  S   S15       1.0  0.5933368131263898  0.9062902198002137  0.12992764180122116  1.0000
  S   S16       1.0  0.40666318765990483  0.09370977882615064  0.8700723584792514  1.0000
