data_image0
_chemical_formula_structural       H64C80O24S32Cl4
_chemical_formula_sum              "H64 C80 O24 S32 Cl4"
_cell_length_a       27.76636959998467
_cell_length_b       6.688625551518313
_cell_length_c       12.369151555476838
_cell_angle_alpha    90.0
_cell_angle_beta     90.0
_cell_angle_gamma    90.0

_space_group_name_H-M_alt    "P 1"
_space_group_IT_number       1

loop_
  _space_group_symop_operation_xyz
  'x, y, z'

loop_
  _atom_site_type_symbol
  _atom_site_label
  _atom_site_symmetry_multiplicity
  _atom_site_fract_x
  _atom_site_fract_y
  _atom_site_fract_z
  _atom_site_occupancy
  H   H1        1.0  0.6211581365685459  0.12456810200877019  0.021472454986809407  1.0000
  H   H2        1.0  0.8788418634322822  0.3754318971301924  0.021472454986809407  1.0000
  H   H3        1.0  0.12115813656826988  0.8754318977642306  0.478527545196031  1.0000
  H   H4        1.0  0.37884186343200615  0.6245681026428084  0.478527545196031  1.0000
  H   H5        1.0  0.37884186343200615  0.8754318977642306  0.9785275445704086  1.0000
  H   H6        1.0  0.12115813656826988  0.6245681026428084  0.9785275445704086  1.0000
  H   H7        1.0  0.8788418634322822  0.12456810200877019  0.5214724551696498  1.0000
  H   H8        1.0  0.6211581365685459  0.3754318971301924  0.5214724551696498  1.0000
  H   H9        1.0  0.6516246783666666  0.11733358280489342  0.3422064853046279  1.0000
  H   H10       1.0  0.8483753216341615  0.3826664178291447  0.3422064853046279  1.0000
  H   H11       1.0  0.15162467836639057  0.8826664169681073  0.15779351406974962  1.0000
  H   H12       1.0  0.34837532163388546  0.6173335819438561  0.15779351406974962  1.0000
  H   H13       1.0  0.34837532163388546  0.8826664169681073  0.6577935142525899  1.0000
  H   H14       1.0  0.15162467836639057  0.6173335819438561  0.6577935142525899  1.0000
  H   H15       1.0  0.8483753216341615  0.11733358280489342  0.8422064854874682  1.0000
  H   H16       1.0  0.6516246783666666  0.3826664178291447  0.8422064854874682  1.0000
  H   H17       1.0  0.5317753409148653  0.131535593258063  0.05051966314725216  1.0000
  H   H18       1.0  0.9682246590859629  0.3684644058808996  0.05051966314725216  1.0000
  H   H19       1.0  0.031775340914589244  0.8684644065149378  0.44948033703558826  1.0000
  H   H20       1.0  0.46822465908568683  0.6315355938921011  0.44948033703558826  1.0000
  H   H21       1.0  0.46822465908568683  0.8684644065149378  0.9494803364099658  1.0000
  H   H22       1.0  0.031775340914589244  0.6315355938921011  0.9494803364099658  1.0000
  H   H23       1.0  0.9682246590859629  0.131535593258063  0.5505196633300925  1.0000
  H   H24       1.0  0.5317753409148653  0.3684644058808996  0.5505196633300925  1.0000
  H   H25       1.0  0.5649040380852908  0.12673861221122942  0.39725710999347297  1.0000
  H   H26       1.0  0.9350959619155375  0.3732613869277332  0.39725710999347297  1.0000
  H   H27       1.0  0.06490403808501471  0.8732613875617714  0.10274289018936741  1.0000
  H   H28       1.0  0.43509596191526134  0.6267386128452676  0.10274289018936741  1.0000
  H   H29       1.0  0.43509596191526134  0.8732613875617714  0.6027428903722079  1.0000
  H   H30       1.0  0.06490403808501471  0.6267386128452676  0.6027428903722079  1.0000
  H   H31       1.0  0.9350959619155375  0.12673861221122942  0.8972571093678505  1.0000
  H   H32       1.0  0.5649040380852908  0.3732613869277332  0.8972571093678505  1.0000
  H   H33       1.0  0.265563171787646  0.06544963933593606  0.27168790801273746  1.0000
  H   H34       1.0  0.23443682821263007  0.43455036129810204  0.27168790801273746  1.0000
  H   H35       1.0  0.765563171787922  0.9345503604370647  0.22831209217010293  1.0000
  H   H36       1.0  0.7344368282129061  0.5654496384748987  0.22831209217010293  1.0000
  H   H37       1.0  0.7344368282129061  0.9345503604370647  0.7283120923529434  1.0000
  H   H38       1.0  0.765563171787922  0.5654496384748987  0.7283120923529434  1.0000
  H   H39       1.0  0.23443682821263007  0.06544963933593606  0.7716879081955779  1.0000
  H   H40       1.0  0.265563171787646  0.43455036129810204  0.7716879081955779  1.0000
  H   H41       1.0  0.3068770013060945  0.8879656162919436  0.32259226367334903  1.0000
  H   H42       1.0  0.19312299869418148  0.6120343826200197  0.32259226367334903  1.0000
  H   H43       1.0  0.8068770013063706  0.11203438348105714  0.17740773570102847  1.0000
  H   H44       1.0  0.6931229986944575  0.387965617152981  0.17740773570102847  1.0000
  H   H45       1.0  0.6931229986944575  0.11203438348105714  0.6774077358838688  1.0000
  H   H46       1.0  0.8068770013063706  0.387965617152981  0.6774077358838688  1.0000
  H   H47       1.0  0.19312299869418148  0.8879656162919436  0.8225922638561894  1.0000
  H   H48       1.0  0.3068770013060945  0.6120343826200197  0.8225922638561894  1.0000
  H   H49       1.0  0.28580458858418356  0.14329821913598204  0.4639662279389674  1.0000
  H   H50       1.0  0.2141954114160925  0.35670178000298064  0.4639662279389674  1.0000
  H   H51       1.0  0.7858045885844597  0.8567017806370187  0.03603377224387301  1.0000
  H   H52       1.0  0.7141954114163684  0.6432982197700202  0.03603377224387301  1.0000
  H   H53       1.0  0.7141954114163684  0.8567017806370187  0.5360337724267134  1.0000
  H   H54       1.0  0.7858045885844597  0.6432982197700202  0.5360337724267134  1.0000
  H   H55       1.0  0.2141954114160925  0.14329821913598204  0.9639662273133449  1.0000
  H   H56       1.0  0.28580458858418356  0.35670178000298064  0.9639662273133449  1.0000
  H   H57       1.0  0.30903705970998585  0.33863791036797414  0.3801916516996472  1.0000
  H   H58       1.0  0.19096294029029015  0.1613620887709885  0.3801916516996472  1.0000
  H   H59       1.0  0.809037059710262  0.6613620894050267  0.1198083476747303  1.0000
  H   H60       1.0  0.6909629402905663  0.8386379110020122  0.1198083476747303  1.0000
  H   H61       1.0  0.6909629402905663  0.6613620894050267  0.6198083478575707  1.0000
  H   H62       1.0  0.809037059710262  0.8386379110020122  0.6198083478575707  1.0000
  H   H63       1.0  0.19096294029029015  0.33863791036797414  0.8801916518824876  1.0000
  H   H64       1.0  0.30903705970998585  0.1613620887709885  0.8801916518824876  1.0000
  C   C1        1.0  0.6039633921032751  0.12496295293586394  0.10030938617213576  1.0000
  C   C2        1.0  0.8960366078975529  0.37503704769817414  0.10030938617213576  1.0000
  C   C3        1.0  0.10396339210299907  0.8750370468371369  0.39969061401070466  1.0000
  C   C4        1.0  0.39603660789727696  0.6249629535699021  0.39969061401070466  1.0000
  C   C5        1.0  0.39603660789727696  0.8750370468371369  0.8996906133850822  1.0000
  C   C6        1.0  0.10396339210299907  0.6249629535699021  0.8996906133850822  1.0000
  C   C7        1.0  0.8960366078975529  0.12496295293586394  0.6003093863549762  1.0000
  C   C8        1.0  0.6039633921032751  0.37503704769817414  0.6003093863549762  1.0000
  C   C9        1.0  0.6215723311559437  0.12155500165731978  0.28592646101373276  1.0000
  C   C10       1.0  0.8784276688448843  0.37844499897671835  0.28592646101373276  1.0000
  C   C11       1.0  0.12157233115566767  0.878444998115681  0.21407353916910765  1.0000
  C   C12       1.0  0.3784276688446084  0.6215550007962825  0.21407353916910765  1.0000
  C   C13       1.0  0.3784276688446084  0.878444998115681  0.7140735385434852  1.0000
  C   C14       1.0  0.12157233115566767  0.6215550007962825  0.7140735385434852  1.0000
  C   C15       1.0  0.8784276688448843  0.12155500165731978  0.7859264611965732  1.0000
  C   C16       1.0  0.6215723311559437  0.37844499897671835  0.7859264611965732  1.0000
  C   C17       1.0  0.5560293362949589  0.12906469398694914  0.1196508914424847  1.0000
  C   C18       1.0  0.9439706637058692  0.370935306647089  0.1196508914424847  1.0000
  C   C19       1.0  0.05602933629468286  0.8709353057860516  0.3803491087403557  1.0000
  C   C20       1.0  0.4439706637055932  0.6290646946209874  0.3803491087403557  1.0000
  C   C21       1.0  0.4439706637055932  0.8709353057860516  0.8803491089231962  1.0000
  C   C22       1.0  0.05602933629468286  0.6290646946209874  0.8803491089231962  1.0000
  C   C23       1.0  0.9439706637058692  0.12906469398694914  0.6196508908168622  1.0000
  C   C24       1.0  0.5560293362949589  0.370935306647089  0.6196508908168622  1.0000
  C   C25       1.0  0.5743027651698767  0.1267740514802054  0.311801864719841  1.0000
  C   C26       1.0  0.9256972348309515  0.3732259476587573  0.311801864719841  1.0000
  C   C27       1.0  0.07430276516960067  0.8732259482927953  0.18819813546299943  1.0000
  C   C28       1.0  0.42569723483067534  0.6267740521142435  0.18819813546299943  1.0000
  C   C29       1.0  0.42569723483067534  0.8732259482927953  0.6881981356458399  1.0000
  C   C30       1.0  0.07430276516960067  0.6267740521142435  0.6881981356458399  1.0000
  C   C31       1.0  0.9256972348309515  0.1267740514802054  0.8118018649026814  1.0000
  C   C32       1.0  0.5743027651698767  0.3732259476587573  0.8118018649026814  1.0000
  C   C33       1.0  0.5378664184463008  0.12917878618632886  0.2288075917985545  1.0000
  C   C34       1.0  0.9621335815545273  0.3708212129526338  0.2288075917985545  1.0000
  C   C35       1.0  0.03786641844602473  0.8708212135866719  0.27119240838428593  1.0000
  C   C36       1.0  0.46213358155425127  0.6291787868203669  0.27119240838428593  1.0000
  C   C37       1.0  0.46213358155425127  0.8708212135866719  0.7711924077586634  1.0000
  C   C38       1.0  0.03786641844602473  0.6291787868203669  0.7711924077586634  1.0000
  C   C39       1.0  0.9621335815545273  0.12917878618632886  0.7288075919813949  1.0000
  C   C40       1.0  0.5378664184463008  0.3708212129526338  0.7288075919813949  1.0000
  C   C41       1.0  0.4891462026064617  0.12949642543577342  0.2527985356130157  1.0000
  C   C42       1.0  0.010853797393814365  0.37050357370318926  0.2527985356130157  1.0000
  C   C43       1.0  0.9891462026067377  0.8705035743372274  0.24720146456982472  1.0000
  C   C44       1.0  0.5108537973940904  0.6294964260698115  0.24720146456982472  1.0000
  C   C45       1.0  0.5108537973940904  0.8705035743372274  0.7472014647526651  1.0000
  C   C46       1.0  0.9891462026067377  0.6294964260698115  0.7472014647526651  1.0000
  C   C47       1.0  0.010853797393814365  0.12949642543577342  0.752798535795856  1.0000
  C   C48       1.0  0.4891462026064617  0.37050357370318926  0.752798535795856  1.0000
  C   C49       1.0  0.39577253808528384  0.12484958584808792  0.244549954492282  1.0000
  C   C50       1.0  0.10422746191499221  0.37515041478595024  0.244549954492282  1.0000
  C   C51       1.0  0.8957725380855599  0.8751504139249128  0.2554500448820955  1.0000
  C   C52       1.0  0.6042274619152682  0.6248495849870505  0.2554500448820955  1.0000
  C   C53       1.0  0.6042274619152682  0.8751504139249128  0.755450045064936  1.0000
  C   C54       1.0  0.8957725380855599  0.6248495849870505  0.755450045064936  1.0000
  C   C55       1.0  0.10422746191499221  0.12484958584808792  0.7445499546751225  1.0000
  C   C56       1.0  0.39577253808528384  0.37515041478595024  0.7445499546751225  1.0000
  C   C57       1.0  0.407164639557569  0.13004587314692026  0.3518443832206911  1.0000
  C   C58       1.0  0.09283536044270703  0.36995412748711787  0.3518443832206911  1.0000
  C   C59       1.0  0.907164639557845  0.869954128121156  0.14815561696214932  1.0000
  C   C60       1.0  0.5928353604429831  0.6300458722858829  0.14815561696214932  1.0000
  C   C61       1.0  0.5928353604429831  0.869954128121156  0.6481556171449897  1.0000
  C   C62       1.0  0.907164639557845  0.6300458722858829  0.6481556171449897  1.0000
  C   C63       1.0  0.09283536044270703  0.13004587314692026  0.8518443825950686  1.0000
  C   C64       1.0  0.407164639557569  0.36995412748711787  0.8518443825950686  1.0000
  C   C65       1.0  0.30239694101041703  0.046137124529261386  0.30208381821835917  1.0000
  C   C66       1.0  0.19760305898985905  0.45386287460970126  0.30208381821835917  1.0000
  C   C67       1.0  0.802396941010693  0.9538628752437394  0.1979161819644812  1.0000
  C   C68       1.0  0.6976030589901351  0.5461371251632995  0.1979161819644812  1.0000
  C   C69       1.0  0.6976030589901351  0.9538628752437394  0.6979161821473217  1.0000
  C   C70       1.0  0.802396941010693  0.5461371251632995  0.6979161821473217  1.0000
  C   C71       1.0  0.19760305898985905  0.046137124529261386  0.8020838184011996  1.0000
  C   C72       1.0  0.30239694101041703  0.45386287460970126  0.8020838184011996  1.0000
  C   C73       1.0  0.31155169129509735  0.1790217393359969  0.3993846827604464  1.0000
  C   C74       1.0  0.1884483087051787  0.3209782612980412  0.3993846827604464  1.0000
  C   C75       1.0  0.8115516912953734  0.820978260437004  0.10061531742239395  1.0000
  C   C76       1.0  0.6884483087054548  0.679021739970035  0.10061531742239395  1.0000
  C   C77       1.0  0.6884483087054548  0.820978260437004  0.6006153176052343  1.0000
  C   C78       1.0  0.8115516912953734  0.679021739970035  0.6006153176052343  1.0000
  C   C79       1.0  0.1884483087051787  0.1790217393359969  0.8993846829432869  1.0000
  C   C80       1.0  0.31155169129509735  0.3209782612980412  0.8993846829432869  1.0000
  O   O1        1.0  0.6373614950371391  0.11950850946029541  0.18128705190026717  1.0000
  O   O2        1.0  0.862638504963689  0.3804914911737427  0.18128705190026717  1.0000
  O   O3        1.0  0.13736149503686307  0.8804914903127053  0.31871294828257324  1.0000
  O   O4        1.0  0.362638504963413  0.619508508599258  0.31871294828257324  1.0000
  O   O5        1.0  0.362638504963413  0.8804914903127053  0.8187129476569508  1.0000
  O   O6        1.0  0.13736149503686307  0.619508508599258  0.8187129476569508  1.0000
  O   O7        1.0  0.862638504963689  0.11950850946029541  0.6812870520831077  1.0000
  O   O8        1.0  0.6373614950371391  0.3804914911737427  0.6812870520831077  1.0000
  O   O9        1.0  0.22889327310558846  0.5935641111048269  0.614877856891681  1.0000
  O   O10       1.0  0.2711067268946876  0.906435889302212  0.614877856891681  1.0000
  O   O11       1.0  0.7288932731058645  0.4064358901632493  0.8851221436568403  1.0000
  O   O12       1.0  0.7711067268949636  0.09356411047078877  0.8851221436568403  1.0000
  O   O13       1.0  0.7711067268949636  0.4064358901632493  0.38512214347399987  1.0000
  O   O14       1.0  0.7288932731058645  0.09356411047078877  0.38512214347399987  1.0000
  O   O15       1.0  0.2711067268946876  0.5935641111048269  0.11487785670884051  1.0000
  O   O16       1.0  0.22889327310558846  0.906435889302212  0.11487785670884051  1.0000
  O   O17       1.0  0.2874054845832062  0.6621251549946142  0.478487232002538  1.0000
  O   O18       1.0  0.2125945154170698  0.8378748454124246  0.478487232002538  1.0000
  O   O19       1.0  0.7874054845834821  0.33787484627346204  0.021512768180302396  1.0000
  O   O20       1.0  0.7125945154173459  0.16212515436057612  0.021512768180302396  1.0000
  O   O21       1.0  0.7125945154173459  0.33787484627346204  0.5215127675546799  1.0000
  O   O22       1.0  0.7874054845834821  0.16212515436057612  0.5215127675546799  1.0000
  O   O23       1.0  0.2125945154170698  0.6621251549946142  0.9784872321853784  1.0000
  O   O24       1.0  0.2874054845832062  0.8378748454124246  0.9784872321853784  1.0000
  S   S1        1.0  0.4443645808851731  0.12791906699064337  0.1543447706528164  1.0000
  S   S2        1.0  0.055635419115102926  0.37208093364339473  0.1543447706528164  1.0000
  S   S3        1.0  0.9443645808854492  0.8720809342774328  0.34565522872156107  1.0000
  S   S4        1.0  0.555635419115379  0.627919066129606  0.34565522872156107  1.0000
  S   S5        1.0  0.555635419115379  0.8720809342774328  0.8456552289044015  1.0000
  S   S6        1.0  0.9443645808854492  0.627919066129606  0.8456552289044015  1.0000
  S   S7        1.0  0.055635419115102926  0.12791906699064337  0.6543447708356568  1.0000
  S   S8        1.0  0.4443645808851731  0.37208093364339473  0.6543447708356568  1.0000
  S   S9        1.0  0.4682253538110066  0.13255121148151966  0.3851995457109849  1.0000
  S   S10       1.0  0.03177464618926945  0.36744878915251844  0.3851995457109849  1.0000
  S   S11       1.0  0.9682253538112826  0.8674487882914811  0.11480045447185554  1.0000
  S   S12       1.0  0.5317746461895455  0.6325512121155579  0.11480045447185554  1.0000
  S   S13       1.0  0.5317746461895455  0.8674487882914811  0.614800453846233  1.0000
  S   S14       1.0  0.9682253538112826  0.6325512121155579  0.614800453846233  1.0000
  S   S15       1.0  0.03177464618926945  0.13255121148151966  0.8851995458938253  1.0000
  S   S16       1.0  0.4682253538110066  0.36744878915251844  0.8851995458938253  1.0000
  S   S17       1.0  0.3391839543908253  0.10754417846529235  0.18519137385666012  1.0000
  S   S18       1.0  0.1608160456094507  0.39245582216874575  0.18519137385666012  1.0000
  S   S19       1.0  0.8391839543911015  0.8924558213077084  0.3148086263261803  1.0000
  S   S20       1.0  0.6608160456097267  0.607544177604255  0.3148086263261803  1.0000
  S   S21       1.0  0.6608160456097267  0.8924558213077084  0.8148086257005579  1.0000
  S   S22       1.0  0.8391839543911015  0.607544177604255  0.8148086257005579  1.0000
  S   S23       1.0  0.1608160456094507  0.10754417846529235  0.6851913740395005  1.0000
  S   S24       1.0  0.3391839543908253  0.39245582216874575  0.6851913740395005  1.0000
  S   S25       1.0  0.36912003072975225  0.1304767718387069  0.46316194237779684  1.0000
  S   S26       1.0  0.1308799692705238  0.3695232273002557  0.46316194237779684  1.0000
  S   S27       1.0  0.8691200307300282  0.8695232279342938  0.03683805780504354  1.0000
  S   S28       1.0  0.6308799692707999  0.630476772472745  0.03683805780504354  1.0000
  S   S29       1.0  0.6308799692707999  0.8695232279342938  0.536838057987884  1.0000
  S   S30       1.0  0.8691200307300282  0.630476772472745  0.536838057987884  1.0000
  S   S31       1.0  0.1308799692705238  0.1304767718387069  0.9631619417521743  1.0000
  S   S32       1.0  0.36912003072975225  0.3695232273002557  0.9631619417521743  1.0000
  Cl  Cl1       1.0  0.250000000000138  0.7499999994559816  0.5464868653021702  1.0000
  Cl  Cl2       1.0  0.750000000000414  0.2500000003170191  0.9535131344378881  1.0000
  Cl  Cl3       1.0  0.750000000000414  0.2500000003170191  0.45351313425504775  1.0000
  Cl  Cl4       1.0  0.250000000000138  0.7499999994559816  0.04648686592779268  1.0000
