data_image0
_chemical_formula_structural       H80C80N6O20S2I2
_chemical_formula_sum              "H80 C80 N6 O20 S2 I2"
_cell_length_a       8.837539885547915
_cell_length_b       9.238603063214219
_cell_length_c       23.42425647330793
_cell_angle_alpha    91.53669360968044
_cell_angle_beta     93.94861889755991
_cell_angle_gamma    96.35878153272827

_space_group_name_H-M_alt    "P 1"
_space_group_IT_number       1

loop_
  _space_group_symop_operation_xyz
  'x, y, z'

loop_
  _atom_site_type_symbol
  _atom_site_label
  _atom_site_symmetry_multiplicity
  _atom_site_fract_x
  _atom_site_fract_y
  _atom_site_fract_z
  _atom_site_occupancy
  H   H1        1.0  0.2269153179799141  0.09832186541351044  0.1481139962884207  1.0000
  H   H2        1.0  0.7730846818617281  0.901678134011726  0.8518860038974384  1.0000
  H   H3        1.0  0.41926777072253996  0.1607919527209569  0.16854591247249537  1.0000
  H   H4        1.0  0.5807322291374297  0.8392080477597889  0.8314540872869132  1.0000
  H   H5        1.0  0.37293831820503587  0.2074577971765264  0.29832664965120415  1.0000
  H   H6        1.0  0.6270616816366061  0.7925422022487101  0.701673350534655  1.0000
  H   H7        1.0  0.1679340305308115  0.6087450560079304  0.2966485896643813  1.0000
  H   H8        1.0  0.8320659694282991  0.3912549445065273  0.7033514105231575  1.0000
  H   H9        1.0  0.07920146921756237  0.5580878481230673  0.19320954045234368  1.0000
  H   H10       1.0  0.9207985306240798  0.4419121513021692  0.8067904597335155  1.0000
  H   H11       1.0  0.14125971456636674  0.33232143588604124  0.1437880488045918  1.0000
  H   H12       1.0  0.8587402864064076  0.6676785635473008  0.8562119513748118  1.0000
  H   H13       1.0  0.3134225928549587  0.22500683618997439  0.384477532960478  1.0000
  H   H14       1.0  0.6865774069866835  0.7749931632352622  0.6155224672253812  1.0000
  H   H15       1.0  0.45547716158942686  0.4577607096496106  0.4640442575417497  1.0000
  H   H16       1.0  0.5445228382705428  0.542239290831135  0.5359557422176588  1.0000
  H   H17       1.0  0.5266487412146719  0.18233058547358957  0.45090265609657676  1.0000
  H   H18       1.0  0.47335125862697025  0.8176694139516468  0.5490973440892825  1.0000
  H   H19       1.0  0.5626566517094042  0.2861246975517243  0.5158759675485544  1.0000
  H   H20       1.0  0.43734334824970644  0.7138753029627333  0.48412403263898446  1.0000
  H   H21       1.0  0.4913863165661943  0.19144426116881977  0.5989705503515913  1.0000
  H   H22       1.0  0.5086136833929162  0.808555739345638  0.40102944983594735  1.0000
  H   H23       1.0  0.3374762517604483  0.010175583389439314  0.6548120570042398  1.0000
  H   H24       1.0  0.6625237480995214  0.9898244170913063  0.34518794275516873  1.0000
  H   H25       1.0  0.13129828564432605  0.8374030792333195  0.6030407641819252  1.0000
  H   H26       1.0  0.8687017154459168  0.16259692128924386  0.3969592359991578  1.0000
  H   H27       1.0  0.08732907809190403  0.839249949720591  0.49942673300768  1.0000
  H   H28       1.0  0.9126709217497381  0.1607500497046455  0.5005732671781791  1.0000
  H   H29       1.0  0.02808791310786911  0.9237939334639417  0.4114092050192392  1.0000
  H   H30       1.0  0.9719120879823737  0.07620606705862179  0.5885907951618439  1.0000
  H   H31       1.0  0.17362518958238227  0.8015896983492491  0.41623458183548817  1.0000
  H   H32       1.0  0.826374810160119  0.19841030104227547  0.5837654179222408  1.0000
  H   H33       1.0  0.2709214493534927  0.8871065306770356  0.32423291659517356  1.0000
  H   H34       1.0  0.7290785506056178  0.11289346983742196  0.6757670835923651  1.0000
  H   H35       1.0  0.941033534682431  0.9702084834264751  0.3170932381850076  1.0000
  H   H36       1.0  0.058966465276679536  0.029791517087982455  0.6829067620025311  1.0000
  H   H37       1.0  0.8322055487924237  0.009013933038089684  0.22232400558012733  1.0000
  H   H38       1.0  0.1677944510492185  0.9909860663871468  0.7776759946057319  1.0000
  H   H39       1.0  0.9329193409539528  0.9642075574441413  0.1580732117455008  1.0000
  H   H40       1.0  0.06708065890601689  0.03579244303660446  0.8419267880139077  1.0000
  H   H41       1.0  0.22055690823448196  0.787857472437938  0.23315575558225005  1.0000
  H   H42       1.0  0.7794430916071602  0.21214252698729844  0.7668442446036092  1.0000
  H   H43       1.0  0.15877437319655638  0.8592216387435186  0.16640314425360822  1.0000
  H   H44       1.0  0.8412256278936865  0.1407783617790447  0.8335968559274749  1.0000
  H   H45       1.0  0.638499173237582  0.07614190838735674  0.13328883184210627  1.0000
  H   H46       1.0  0.3615008265049194  0.9238580910041678  0.8667111679156227  1.0000
  H   H47       1.0  0.6356744484994484  0.989848489095773  0.031935560091268786  1.0000
  H   H48       1.0  0.3643255512430528  0.01015151029575142  0.9680644396664602  1.0000
  H   H49       1.0  0.4292774621421383  0.5664391497823357  0.07593508313198544  1.0000
  H   H50       1.0  0.5707225377178313  0.43356085069841  0.9240649166274231  1.0000
  H   H51       1.0  0.42537788571696317  0.6530762644871839  0.17675376420875832  1.0000
  H   H52       1.0  0.5746221140255381  0.34692373490434064  0.8232462355489706  1.0000
  H   H53       1.0  0.07815843770059507  0.33553082321061717  0.5770307238598816  1.0000
  H   H54       1.0  0.9218415621593746  0.6644691772701287  0.4229692758995268  1.0000
  H   H55       1.0  0.06890583382076482  0.5177969963050802  0.5556790735063315  1.0000
  H   H56       1.0  0.9310941660208774  0.4822030031201562  0.44432092667952766  1.0000
  H   H57       1.0  0.3772267331493576  0.3597361374886959  0.6480008044970387  1.0000
  H   H58       1.0  0.6227732679408852  0.6402638630338674  0.35199919568404436  1.0000
  H   H59       1.0  0.44418854904092947  0.4393724301427136  0.7491826479212405  1.0000
  H   H60       1.0  0.5558114508007126  0.5606275692825228  0.25081735226461865  1.0000
  H   H61       1.0  0.09055564387255052  0.725525932310168  0.7408017372355375  1.0000
  H   H62       1.0  0.9094443559690918  0.2744740671150685  0.25919826295032167  1.0000
  H   H63       1.0  0.022345768756623603  0.6447026884604236  0.6385513448348216  1.0000
  H   H64       1.0  0.9776542311033461  0.355297312020322  0.3614486549245869  1.0000
  H   H65       1.0  0.18083640956891872  0.6335054615401101  0.09887902150811662  1.0000
  H   H66       1.0  0.8191635902727235  0.3664945378851264  0.9011209786777425  1.0000
  H   H67       1.0  0.10827980779172798  0.5727239388869746  0.02942209322900794  1.0000
  H   H68       1.0  0.8917201920682417  0.42727606159377113  0.9705779065304007  1.0000
  H   H69       1.0  0.03375599363628106  0.48526235008086277  0.09050920763721411  1.0000
  H   H70       1.0  0.9662440063228295  0.5147376504335949  0.9094907925503246  1.0000
  H   H71       1.0  0.21149950907803428  0.8179050662066307  0.04023201376519068  1.0000
  H   H72       1.0  0.7885004906644671  0.18209493318489384  0.9597679859925383  1.0000
  H   H73       1.0  0.12936148992039506  0.9791635117144918  0.023340839315941123  1.0000
  H   H74       1.0  0.8706385100387154  0.020836488799965868  0.9766591608715975  1.0000
  H   H75       1.0  0.15132711013894162  0.8693486013678321  0.9301007069955877  1.0000
  H   H76       1.0  0.848672889820169  0.13065139914662557  0.06989929319195101  1.0000
  H   H77       1.0  0.9580821514443891  0.8196776447006909  0.9438126478971016  1.0000
  H   H78       1.0  0.04191784839725303  0.18032235472454555  0.056187352288757576  1.0000
  H   H79       1.0  0.09465820603565382  0.6920947086612493  0.9516756835814294  1.0000
  H   H80       1.0  0.9053417939234566  0.30790529185320836  0.048324316606109356  1.0000
  C   C1        1.0  0.30832511943267654  0.1275432743929757  0.1854623890159321  1.0000
  C   C2        1.0  0.6916748804272931  0.87245672608777  0.8145376107434765  1.0000
  C   C3        1.0  0.2617365681813747  0.2566286613141462  0.21808060117535305  1.0000
  C   C4        1.0  0.7382634315611266  0.7433713380773783  0.7819193985823759  1.0000
  C   C5        1.0  0.3068400187970183  0.2841895452893766  0.2759753623461306  1.0000
  C   C6        1.0  0.693159980945483  0.7158104541021479  0.7240246374115983  1.0000
  C   C7        1.0  0.27190789108495794  0.41084316616249394  0.30405655002376725  1.0000
  C   C8        1.0  0.7280921088741527  0.5891568343519639  0.6959434501637713  1.0000
  C   C9        1.0  0.19401588257986488  0.5116443882065785  0.27363799178022225  1.0000
  C   C10       1.0  0.8059841172617773  0.4883556112186579  0.7263620084056369  1.0000
  C   C11       1.0  0.14683110800997665  0.48343397284975287  0.2160953033211298  1.0000
  C   C12       1.0  0.8531688917325245  0.5165660265417716  0.7839046964365991  1.0000
  C   C13       1.0  0.17993896866702372  0.3560906998128221  0.1886066746198804  1.0000
  C   C14       1.0  0.8200610310754775  0.6439092995787025  0.8113933251378485  1.0000
  C   C15       1.0  0.3132648899762628  0.44412425494841595  0.3662967770348881  1.0000
  C   C16       1.0  0.6867351098653793  0.5558757444768205  0.633703223150971  1.0000
  C   C17       1.0  0.38243970937188426  0.3536722330674162  0.4593344981884505  1.0000
  C   C18       1.0  0.6175602905872264  0.6463277674470416  0.5406655019990882  1.0000
  C   C19       1.0  0.47155639020453  0.232878348416908  0.4857988389215745  1.0000
  C   C20       1.0  0.528443610786572  0.7671216520719434  0.5142011608313783  1.0000
  C   C21       1.0  0.37837965178651267  0.1193713461478005  0.5176068158159234  1.0000
  C   C22       1.0  0.6216203493037301  0.8806286543747628  0.4823931843651596  1.0000
  C   C23       1.0  0.40203166952291186  0.11423073392882228  0.577140668444817  1.0000
  C   C24       1.0  0.5979683302195895  0.8857692654627022  0.4228593313129119  1.0000
  C   C25       1.0  0.31573573866225685  0.01302978284469917  0.6085751082500644  1.0000
  C   C26       1.0  0.6842642611793852  0.9869702165805371  0.39142489193579466  1.0000
  C   C27       1.0  0.20200680595571927  0.9161435792184612  0.5797527322236207  1.0000
  C   C28       1.0  0.7979931940033913  0.0838564212959964  0.42024726796391815  1.0000
  C   C29       1.0  0.17681827108600126  0.916945011341038  0.5202490326884625  1.0000
  C   C30       1.0  0.8231817287556409  0.08305498808419856  0.4797509674973967  1.0000
  C   C31       1.0  0.26606290372928226  0.01686535378395091  0.48915607147672696  1.0000
  C   C32       1.0  0.7339370961123598  0.9831346456412855  0.5108439287091322  1.0000
  C   C33       1.0  0.145063999531468  0.9081380313172897  0.4011075547481852  1.0000
  C   C34       1.0  0.8549360003285017  0.09186196916345615  0.5988924450112234  1.0000
  C   C35       1.0  0.1619371164060499  0.9139532862115107  0.33849193638967934  1.0000
  C   C36       1.0  0.838062884585052  0.08604671427734059  0.6615080633632735  1.0000
  C   C37       1.0  0.04792371792894679  0.942813949551838  0.30083883672636424  1.0000
  C   C38       1.0  0.9520762819126954  0.05718604987339861  0.699161163459495  1.0000
  C   C39       1.0  0.05065560833618112  0.9363865794591808  0.2386967501164514  1.0000
  C   C40       1.0  0.9493443925374526  0.06361341994044946  0.761303249634822  1.0000
  C   C41       1.0  0.9325365323100421  0.9722630774004282  0.2045867439234062  1.0000
  C   C42       1.0  0.06746346764906844  0.02773692311402953  0.7954132562641324  1.0000
  C   C43       1.0  0.18765149640665385  0.8857476171604032  0.2124042483477399  1.0000
  C   C44       1.0  0.8123485035524567  0.11425238335405448  0.7875957518397988  1.0000
  C   C45       1.0  0.5269416576636466  0.8713194412527385  0.16050366697958582  1.0000
  C   C46       1.0  0.47305834207885455  0.12868055813878593  0.8394963327781431  1.0000
  C   C47       1.0  0.590236007890229  0.9653696273582278  0.12043860825985055  1.0000
  C   C48       1.0  0.40976399196974067  0.03463037312251786  0.879561391499558  1.0000
  C   C49       1.0  0.5904001714015558  0.9163388067647258  0.06367456950912366  1.0000
  C   C50       1.0  0.40959982845841386  0.08366119371601986  0.9363254302502849  1.0000
  C   C51       1.0  0.5289088404623874  0.7742145694498541  0.047737081436436395  1.0000
  C   C52       1.0  0.4710911593792548  0.22578542997538237  0.9522629187494229  1.0000
  C   C53       1.0  0.4722188666133654  0.6784937865775953  0.08835124631033225  1.0000
  C   C54       1.0  0.5277811332466043  0.3215062139031505  0.9116487534490761  1.0000
  C   C55       1.0  0.47062956499915876  0.7270476002356152  0.14503816852993173  1.0000
  C   C56       1.0  0.5293704347433424  0.2729523991559093  0.8549618312277973  1.0000
  C   C57       1.0  0.23890471794447168  0.3723613019453594  0.49022369544491257  1.0000
  C   C58       1.0  0.7610952817980295  0.6276386974461652  0.5097763043128164  1.0000
  C   C59       1.0  0.1428979286803224  0.44445884176476647  0.5767349316988236  1.0000
  C   C60       1.0  0.8571020723107795  0.5555411587240848  0.4232650680541291  1.0000
  C   C61       1.0  0.19490432585010034  0.49734068333354486  0.6366235673559794  1.0000
  C   C62       1.0  0.8050956740098693  0.5026593171472008  0.36337643240342904  1.0000
  C   C63       1.0  0.3142522499236019  0.43987088673277974  0.6679079845352976  1.0000
  C   C64       1.0  0.6857477499180403  0.5601291126924567  0.3320920156505615  1.0000
  C   C65       1.0  0.35271418511798835  0.48423854873301475  0.7246917387732307  1.0000
  C   C66       1.0  0.647285814624513  0.5157614506585099  0.27530826098449823  1.0000
  C   C67       1.0  0.26973731338768137  0.5857328550570077  0.7501385353416784  1.0000
  C   C68       1.0  0.730262686571429  0.41426714545744997  0.24986146484586017  1.0000
  C   C69       1.0  0.15152236399154087  0.6456072390514692  0.7198478469609654  1.0000
  C   C70       1.0  0.8484776359675696  0.35439276146298854  0.2801521532265733  1.0000
  C   C71       1.0  0.1153248300118393  0.6008055116184102  0.6629536336881736  1.0000
  C   C72       1.0  0.8846751699472714  0.3991944888960475  0.3370463664993652  1.0000
  C   C73       1.0  0.07632089741916699  0.5892436792758079  0.07332907108742989  1.0000
  C   C74       1.0  0.9236791024408026  0.4107563212049377  0.9266709286719785  1.0000
  C   C75       1.0  0.9560014554448316  0.6911721269114616  0.07808040002373647  1.0000
  C   C76       1.0  0.043998545428801925  0.3088278724881686  0.9219195997275368  1.0000
  C   C77       1.0  0.11000045891644869  0.8598824481709286  0.0200628554169963  1.0000
  C   C78       1.0  0.8899995408260526  0.14011755122059577  0.9799371443407326  1.0000
  C   C79       1.0  0.07662579797600248  0.8065818937849006  0.9581158140122219  1.0000
  C   C80       1.0  0.9233742031142403  0.19341810673766274  0.04188418616886108  1.0000
  N   N1        1.0  0.32027906672206635  0.9976446996454487  0.21934034084213644  1.0000
  N   N2        1.0  0.6797209332370442  0.002355300869009011  0.7806596593454023  1.0000
  N   N3        1.0  0.34501102983597476  0.3297804668265231  0.39866714536728537  1.0000
  N   N4        1.0  0.6549889701231358  0.6702195336879345  0.6013328548202533  1.0000
  N   N5        1.0  0.3075831584367249  0.6313098063521456  0.8098476430038405  1.0000
  N   N6        1.0  0.6924168414232448  0.36869019412860005  0.19015235675556794  1.0000
  O   O1        1.0  0.3185693071116504  0.5701890710044278  0.38727240289544684  1.0000
  O   O2        1.0  0.6814306928474603  0.4298109295100298  0.6127275972920919  1.0000
  O   O3        1.0  0.2513991237218102  0.021377331439553768  0.430432069756776  1.0000
  O   O4        1.0  0.748600876020691  0.9786226679519707  0.5695679300009528  1.0000
  O   O5        1.0  0.47789522449751254  0.8222537350694362  0.26746669378902455  1.0000
  O   O6        1.0  0.5221047765927301  0.17774626545312713  0.7325333063920584  1.0000
  O   O7        1.0  0.5966497673298613  0.07046858349046561  0.24290407209004888  1.0000
  O   O8        1.0  0.40335023241264  0.9295314159010588  0.7570959276676802  1.0000
  O   O9        1.0  0.10837108105114764  0.33579342031177845  0.47037017958144894  1.0000
  O   O10       1.0  0.8916289186913536  0.664206579079746  0.52962982017628  1.0000
  O   O11       1.0  0.27427237852578273  0.43267566007483194  0.5433200142690273  1.0000
  O   O12       1.0  0.7257276213341869  0.5673243404059138  0.45667998549038125  1.0000
  O   O13       1.0  0.4305087084571169  0.5998759853421819  0.8332730391706779  1.0000
  O   O14       1.0  0.5694912912853843  0.40012401404934256  0.1667269605870511  1.0000
  O   O15       1.0  0.21718453744061822  0.7006893572571552  0.8347747044224261  1.0000
  O   O16       1.0  0.7828154634330153  0.2993106421424748  0.16522529532884714  1.0000
  O   O17       1.0  0.8418067961472986  0.6637332682182944  0.10391298243577378  1.0000
  O   O18       1.0  0.1581932038118119  0.3362667322961632  0.8960870177517649  1.0000
  O   O19       1.0  0.9797527865520972  0.8240928344410556  0.053986023718384034  1.0000
  O   O20       1.0  0.020247213307872648  0.17590716603969012  0.9460139760410244  1.0000
  S   S1        1.0  0.4914703411218707  0.9412541394586309  0.22871250086756856  1.0000
  S   S2        1.0  0.5085296588372399  0.058745861055826944  0.7712874993199701  1.0000
  I   I1        1.0  0.5093095855822  0.7062938618627091  0.9608167852606799  1.0000
  I   I2        1.0  0.4906904142594422  0.29370613756252734  0.03918321492517924  1.0000
