data_image0
_chemical_formula_structural       H36C44N8O12
_chemical_formula_sum              "H36 C44 N8 O12"
_cell_length_a       12.39300885650806
_cell_length_b       3.7567665970554702
_cell_length_c       21.19320567414325
_cell_angle_alpha    90.0
_cell_angle_beta     104.2387794792313
_cell_angle_gamma    90.0

_space_group_name_H-M_alt    "P 1"
_space_group_IT_number       1

loop_
  _space_group_symop_operation_xyz
  'x, y, z'

loop_
  _atom_site_type_symbol
  _atom_site_label
  _atom_site_symmetry_multiplicity
  _atom_site_fract_x
  _atom_site_fract_y
  _atom_site_fract_z
  _atom_site_occupancy
  H   H1        1.0  0.47908413480062806  0.697614664710378  0.03342556514416281  1.0000
  H   H2        1.0  0.02091586590822174  0.19761466431848126  0.46657443487583067  1.0000
  H   H3        1.0  0.5209158658104044  0.30238533607341556  0.9665744348963922  1.0000
  H   H4        1.0  0.9790841347028109  0.8023853364653123  0.5334255651647243  1.0000
  H   H5        1.0  0.7071594899029946  0.7521463969081064  0.22304452431822436  1.0000
  H   H6        1.0  0.7928405099408237  0.25214639651620957  0.27695547544386306  1.0000
  H   H7        1.0  0.29284051070803807  0.2478536038756872  0.7769554757223307  1.0000
  H   H8        1.0  0.20715948986354185  0.7478536016057205  0.7230445245972601  1.0000
  H   H9        1.0  0.5681565102503656  0.464045027808327  0.2715295912602986  1.0000
  H   H10       1.0  0.9318434895934525  0.9640450255383602  0.22847040850178885  1.0000
  H   H11       1.0  0.43184348955399987  0.5359549729754666  0.7284704087808246  1.0000
  H   H12       1.0  0.06815651021091285  0.03595497258356973  0.7715295915393342  1.0000
  H   H13       1.0  0.33967001453678297  0.4013752414594671  0.08171005127626128  1.0000
  H   H14       1.0  0.16032998536539975  0.901375241851364  0.4182899487443002  1.0000
  H   H15       1.0  0.6603299852675825  0.598624756662463  0.9182899487648618  1.0000
  H   H16       1.0  0.8396700144389657  0.09862475627056616  0.5817100512968228  1.0000
  H   H17       1.0  0.39084073859707563  0.23847398470328013  0.2564707385161676  1.0000
  H   H18       1.0  0.10915926130510704  0.7384739850951769  0.24352926150439394  1.0000
  H   H19       1.0  0.6091592612072898  0.7615260160805135  0.7435292615249555  1.0000
  H   H20       1.0  0.8908407384992584  0.26152601568861666  0.7564707385367291  1.0000
  H   H21       1.0  0.9233759437631254  0.4641504029999374  0.17306424853057792  1.0000
  H   H22       1.0  0.576624056080693  0.9641504033918342  0.32693575123150953  1.0000
  H   H23       1.0  0.07662405604124009  0.5358495977838562  0.8269357515105451  1.0000
  H   H24       1.0  0.4233759435179712  0.035849597391959406  0.6730642483228095  1.0000
  H   H25       1.0  0.863942698339914  0.32854271834917925  0.05701573657298833  1.0000
  H   H26       1.0  0.6360573025162726  0.828542718741076  0.44298426367533517  1.0000
  H   H27       1.0  0.13605730227111848  0.6714572824346143  0.9429842634675667  1.0000
  H   H28       1.0  0.36394269809475993  0.17145728204271754  0.55701573636522  1.0000
  H   H29       1.0  0.22325944566292913  0.8914287921493016  0.15622366407690855  1.0000
  H   H30       1.0  0.27674055423925364  0.39142879441926837  0.34377633594365303  1.0000
  H   H31       1.0  0.7767405541414364  0.10857120597262845  0.8437763359642145  1.0000
  H   H32       1.0  0.7232594455651118  0.6085712063645252  0.6562236640974701  1.0000
  H   H33       1.0  0.17661128813816976  0.7784710293932636  0.03718893996394504  1.0000
  H   H34       1.0  0.3233887117640129  0.2784710290013668  0.4628110600566165  1.0000
  H   H35       1.0  0.8233887124728628  0.22152897139052996  0.96281106007661  1.0000
  H   H36       1.0  0.6766112880403525  0.7215289691205632  0.5371889399845066  1.0000
  C   C1        1.0  0.601624697662889  0.7391778536831464  0.1253777016756294  1.0000
  C   C2        1.0  0.8983753021809291  0.23917785329124952  0.374622298086458  1.0000
  C   C3        1.0  0.3983753019357751  0.2608221471006473  0.8746222978786896  1.0000
  C   C4        1.0  0.10162469843010327  0.7608221448306806  0.6253777019540969  1.0000
  C   C5        1.0  0.4980522676320442  0.6413509803586086  0.08528054100487316  1.0000
  C   C6        1.0  0.0019477322701386016  0.14135097996671184  0.4147194590156884  1.0000
  C   C7        1.0  0.5019477321723214  0.3586490177633214  0.91471945903625  1.0000
  C   C8        1.0  0.9980522675342269  0.8586490181552182  0.5852805410254348  1.0000
  C   C9        1.0  0.6263493638664427  0.6767499349021869  0.1926390278820061  1.0000
  C   C10       1.0  0.8736506359773756  0.17674993451029014  0.3073609718800814  1.0000
  C   C11       1.0  0.3736506365388885  0.3232500658816066  0.8073609716717449  1.0000
  C   C12       1.0  0.1263493638269899  0.8232500662735034  0.6926390281610417  1.0000
  C   C13       1.0  0.4426652970660208  0.4183246841131332  0.18027305589335663  1.0000
  C   C14       1.0  0.05733470283616198  0.9183246845050299  0.3197269441272049  1.0000
  C   C15       1.0  0.5573347027383447  0.5816753166706604  0.8197269441477665  1.0000
  C   C16       1.0  0.9426652969682034  0.08167531627876361  0.6802730559139182  1.0000
  C   C17       1.0  0.5481177598939756  0.5163297585536318  0.21959040938126623  1.0000
  C   C18       1.0  0.9518822399498426  0.016329758161735004  0.2804095903808212  1.0000
  C   C19       1.0  0.4518822399103899  0.48367024223016175  0.7804095906598568  1.0000
  C   C20       1.0  0.04811775985452289  0.983670239960195  0.719590409660302  1.0000
  C   C21       1.0  0.41966880904271864  0.4819674614385593  0.11250568840309134  1.0000
  C   C22       1.0  0.08033119085946412  0.9819674618304561  0.38749431161747017  1.0000
  C   C23       1.0  0.5803311907616469  0.5180325366833708  0.8874943116380317  1.0000
  C   C24       1.0  0.9196688089449016  0.018032538953337517  0.6125056884236529  1.0000
  C   C25       1.0  0.015650034524182607  0.5390702689880463  0.03532646279822092  1.0000
  C   C26       1.0  0.4843499653780001  0.03907026859614956  0.46467353722234067  1.0000
  C   C27       1.0  0.9843499652801827  0.4609297317957472  0.9646735372429021  1.0000
  C   C28       1.0  0.5156500344263654  0.9609297295257805  0.5353264628187825  1.0000
  C   C29       1.0  0.9777455611148951  0.5288128603882671  0.1414369964707197  1.0000
  C   C30       1.0  0.5222544387289232  0.028812859996370368  0.35856300329136775  1.0000
  C   C31       1.0  0.02225443949613755  0.47118714039552645  0.8585630035698355  1.0000
  C   C32       1.0  0.47774556107544236  0.9711871407874232  0.6414369967497553  1.0000
  C   C33       1.0  0.9444895292198682  0.4546074545431183  0.07537492285843786  1.0000
  C   C34       1.0  0.5555104708296514  0.9546074549350151  0.42462507739045363  1.0000
  C   C35       1.0  0.05551047058449736  0.5453925462406753  0.9246250771826852  1.0000
  C   C36       1.0  0.444489528974714  0.04539254584877849  0.5753749226506694  1.0000
  C   C37       1.0  0.14477510803641477  0.765725371987363  0.13183313882562336  1.0000
  C   C38       1.0  0.355224892672435  0.2657253715954662  0.3681668611943701  1.0000
  C   C39       1.0  0.8552248925746178  0.23427462879643057  0.8681668612149317  1.0000
  C   C40       1.0  0.6447751079385975  0.7342746291883274  0.6318331388461849  1.0000
  C   C41       1.0  0.11769843907831884  0.7009227621603875  0.06521833336919691  1.0000
  C   C42       1.0  0.3823015608238639  0.20092276176849075  0.43478166665136464  1.0000
  C   C43       1.0  0.8823015615327137  0.299077238623406  0.9347816666713581  1.0000
  C   C44       1.0  0.6176984389805015  0.7990772390153028  0.5652183333897585  1.0000
  N   N1        1.0  0.6834648449922668  0.9075310594680681  0.09808941075949862  1.0000
  N   N2        1.0  0.8165351548515514  0.4075310590761713  0.4019105890025888  1.0000
  N   N3        1.0  0.31653515481209865  0.09246894131572549  0.9019105892816246  1.0000
  N   N4        1.0  0.1834648449528142  0.5924689417076223  0.5980894110385343  1.0000
  N   N5        1.0  0.07591402370042812  0.6802264537815437  0.16960154347841866  1.0000
  N   N6        1.0  0.4240859762017546  0.18022645338964685  0.3303984565421429  1.0000
  N   N7        1.0  0.9240859761039373  0.3197735443403864  0.8303984565627044  1.0000
  N   N8        1.0  0.5759140236026108  0.8197735447322831  0.6696015434989802  1.0000
  O   O1        1.0  0.3649890888518573  0.26722259263773396  0.2050151904550089  1.0000
  O   O2        1.0  0.13501091105032542  0.7672225930296308  0.2949848095655526  1.0000
  O   O3        1.0  0.6350109109525082  0.7327774054841961  0.7949848095861141  1.0000
  O   O4        1.0  0.8649890887540401  0.2327774077541628  0.7050151904755705  1.0000
  O   O5        1.0  0.7703001941832901  0.02398065668242785  0.13617180692562383  1.0000
  O   O6        1.0  0.7296998056605282  0.5239806570743246  0.3638281928364636  1.0000
  O   O7        1.0  0.2296998056210753  0.9760193414395022  0.8638281931154992  1.0000
  O   O8        1.0  0.2703001941438374  0.4760193410476054  0.6361718072046595  1.0000
  O   O9        1.0  0.6663184048695285  0.9343374280295146  0.03750158082782442  1.0000
  O   O10       1.0  0.8336815951799911  0.4343374276376178  0.4624984194210671  1.0000
  O   O11       1.0  0.333681594934837  0.065662572754279  0.9624984192132987  1.0000
  O   O12       1.0  0.16631840462437442  0.5656625731461757  0.5375015806200559  1.0000
