data_image0
_chemical_formula_structural       H18C24N4O6
_chemical_formula_sum              "H18 C24 N4 O6"
_cell_length_a       3.775761498393492
_cell_length_b       9.623171384121678
_cell_length_c       14.181547772466466
_cell_angle_alpha    78.03787589234301
_cell_angle_beta     85.73465422660024
_cell_angle_gamma    79.3556046990354

_space_group_name_H-M_alt    "P 1"
_space_group_IT_number       1

loop_
  _space_group_symop_operation_xyz
  'x, y, z'

loop_
  _atom_site_type_symbol
  _atom_site_label
  _atom_site_symmetry_multiplicity
  _atom_site_fract_x
  _atom_site_fract_y
  _atom_site_fract_z
  _atom_site_occupancy
  H   H1        1.0  0.295946478516377  0.1459905051988535  0.9768279305985034  1.0000
  H   H2        1.0  0.7040535209847051  0.854009495457003  0.023172069686112937  1.0000
  H   H3        1.0  0.6209114660316247  0.037399322876780425  0.12824623904580093  1.0000
  H   H4        1.0  0.37908853395119085  0.9626006766904546  0.8717537606838668  1.0000
  H   H5        1.0  0.6181877775912256  0.5575348063408206  0.7762852354918466  1.0000
  H   H6        1.0  0.38181222239159013  0.4424651932264142  0.2237147642378211  1.0000
  H   H7        1.0  0.35086367948128466  0.8142737579998601  0.7479211167171826  1.0000
  H   H8        1.0  0.6491363200197974  0.18572624265599624  0.2520788835674338  1.0000
  H   H9        1.0  0.14658629708399304  0.43459451373449787  0.7281296574872741  1.0000
  H   H10       1.0  0.8534137028841667  0.5654054858428159  0.2718703429463717  1.0000
  H   H11       1.0  0.04835248993286872  0.03182291101320788  0.5664405669027148  1.0000
  H   H12       1.0  0.9516475122241603  0.9681770896423283  0.43355943333208574  1.0000
  H   H13       1.0  0.33295319548025526  0.4499906736916157  0.5570622048721785  1.0000
  H   H14       1.0  0.667046806676774  0.5500093269639206  0.4429377953626218  1.0000
  H   H15       1.0  0.851348374424244  0.019173617660255205  0.7376794433857581  1.0000
  H   H16       1.0  0.14865162554391578  0.9808263819170585  0.2623205570478878  1.0000
  H   H17       1.0  0.9166222036857344  0.29765965411798156  0.8658569664823942  1.0000
  H   H18       1.0  0.08337779583000354  0.702340346527796  0.13414303309824385  1.0000
  C   C1        1.0  0.8214687627918966  0.5559294442734765  0.916357700065071  1.0000
  C   C2        1.0  0.178531237176263  0.4440705553038372  0.08364230036857494  1.0000
  C   C3        1.0  0.1515021955381211  0.3573217659263225  0.013192933729608829  1.0000
  C   C4        1.0  0.8484978044300385  0.6426782336509912  0.9868070667040371  1.0000
  C   C5        1.0  0.31527990110057347  0.20935508355490962  0.0309833467307458  1.0000
  C   C6        1.0  0.6847200988822422  0.7906449160123252  0.9690166529989218  1.0000
  C   C7        1.0  0.6350799861497199  0.6212929570471892  0.830442435748255  1.0000
  C   C8        1.0  0.36492001381843964  0.3787070425301246  0.16955756468539085  1.0000
  C   C9        1.0  0.4845836649280242  0.764917338959292  0.8151394991150411  1.0000
  C   C10       1.0  0.5154163350401354  0.23508266061802174  0.18486050131860474  1.0000
  C   C11       1.0  0.4935721618732611  0.15053776875925662  0.11481030587449483  1.0000
  C   C12       1.0  0.5064278407655016  0.8494622308076581  0.8851896938053568  1.0000
  C   C13       1.0  0.9870354210097947  0.225017820907904  0.7446036866570324  1.0000
  C   C14       1.0  0.012964578958364783  0.7749821786694099  0.2553963137766135  1.0000
  C   C15       1.0  0.12308319959126991  0.34683975079785845  0.6927508623504834  1.0000
  C   C16       1.0  0.8769167999098122  0.6531602498579979  0.30724913793413294  1.0000
  C   C17       1.0  0.1998705541754725  0.24254049458989207  0.551060871620816  1.0000
  C   C18       1.0  0.8001294458073432  0.7574595049773427  0.4489391281088517  1.0000
  C   C19       1.0  0.9613166371205202  0.11202998221002745  0.6976694067853736  1.0000
  C   C20       1.0  0.03868336238056184  0.8879700184458289  0.30233059349924274  1.0000
  C   C21       1.0  0.06760081634711282  0.1200973958955273  0.6015973923921911  1.0000
  C   C22       1.0  0.9323991836210469  0.8799026036817865  0.3984026080414549  1.0000
  C   C23       1.0  0.2272285351765299  0.35598324943064313  0.5963895446187745  1.0000
  C   C24       1.0  0.7727714647916297  0.6440167501466707  0.40361045581487154  1.0000
  N   N1        1.0  0.9728953599972788  0.4154310918384578  0.93165842128523  1.0000
  N   N2        1.0  0.027104639970880702  0.5845689077388561  0.06834157914841595  1.0000
  N   N3        1.0  0.3152761035953309  0.25090878070483597  0.4511266505941209  1.0000
  N   N4        1.0  0.684723895920407  0.7490912199409417  0.5488733489865173  1.0000
  O   O1        1.0  0.8777280939885749  0.21174550755652316  0.8379969104043848  1.0000
  O   O2        1.0  0.12227190599424075  0.7882544920107118  0.16200308932528276  1.0000
  O   O3        1.0  0.275657606001574  0.15185095314700706  0.4103330344128806  1.0000
  O   O4        1.0  0.7243423939665855  0.8481490464303069  0.5896669660207652  1.0000
  O   O5        1.0  0.45326793975071816  0.3567651767367223  0.4087441410419189  1.0000
  O   O6        1.0  0.5467320624209667  0.6432348239087352  0.5912558584889032  1.0000
