data_image0
_chemical_formula_structural       H52C72N12O12
_chemical_formula_sum              "H52 C72 N12 O12"
_cell_length_a       3.7668735353827727
_cell_length_b       15.60995348036015
_cell_length_c       24.057008275468405
_cell_angle_alpha    90.0
_cell_angle_beta     90.0
_cell_angle_gamma    90.0

_space_group_name_H-M_alt    "P 1"
_space_group_IT_number       1

loop_
  _space_group_symop_operation_xyz
  'x, y, z'

loop_
  _atom_site_type_symbol
  _atom_site_label
  _atom_site_symmetry_multiplicity
  _atom_site_fract_x
  _atom_site_fract_y
  _atom_site_fract_z
  _atom_site_occupancy
  H   H1        1.0  0.23632081662373694  0.1964826066816207  0.036099529918920924  1.0000
  H   H2        1.0  0.26367918398913565  0.8035173932953074  0.5360995295974262  1.0000
  H   H3        1.0  0.7636791846020082  0.6964826066700849  0.4639004701752636  1.0000
  H   H4        1.0  0.7363208172366096  0.30351739330684335  0.963900470269448  1.0000
  H   H5        1.0  0.02184551172930156  0.2531585648203242  0.3372696611770202  1.0000
  H   H6        1.0  0.47815448888357104  0.746841435156604  0.8372696612712046  1.0000
  H   H7        1.0  0.9781544868417221  0.7531585648087883  0.16273033891716432  1.0000
  H   H8        1.0  0.5218455123421741  0.2468414351681399  0.6627303390113488  1.0000
  H   H9        1.0  0.00257076058143162  0.018183475713564472  0.24343136033135757  1.0000
  H   H10       1.0  0.49742924003144096  0.9818165242633636  0.743431360425542  1.0000
  H   H11       1.0  0.9974292406443135  0.5181834757020285  0.25656863976282696  1.0000
  H   H12       1.0  0.5025707585395828  0.4818165242748996  0.7565686398570114  1.0000
  H   H13       1.0  0.4601291266402643  0.4518408507029881  0.21303237714832662  1.0000
  H   H14       1.0  0.03987087131788684  0.54815914927394  0.7130323772425112  1.0000
  H   H15       1.0  0.5398708719307594  0.9518408506914522  0.2869676225301786  1.0000
  H   H16       1.0  0.9601291272531368  0.04815914928547599  0.786967622624363  1.0000
  H   H17       1.0  0.2038699369082918  0.44168065706759096  0.11813982260205473  1.0000
  H   H18       1.0  0.2961300637045808  0.5583193429093372  0.6181398226962392  1.0000
  H   H19       1.0  0.7961300616627319  0.941680657056055  0.38186017707645054  1.0000
  H   H20       1.0  0.7038699375211644  0.05831934292087309  0.8818601771706351  1.0000
  H   H21       1.0  0.7578693797879009  0.3835894557619047  0.2933696051972025  1.0000
  H   H22       1.0  0.7421306220507168  0.6164105442150235  0.793369605291387  1.0000
  H   H23       1.0  0.2421306214378442  0.8835894557503687  0.20663039489698198  1.0000
  H   H24       1.0  0.2578693791750284  0.1164105442265594  0.7066303945754873  1.0000
  H   H25       1.0  0.07329829032127128  0.3517420097957473  0.03465041248915518  1.0000
  H   H26       1.0  0.4267017102916013  0.6482579901811809  0.5346504121676604  1.0000
  H   H27       1.0  0.926701710904474  0.8517420097842113  0.4653495876050293  1.0000
  H   H28       1.0  0.5732982882794224  0.14825799019271677  0.9653495876992138  1.0000
  H   H29       1.0  0.16732341664237824  0.0981397959915416  0.33101142622627094  1.0000
  H   H30       1.0  0.33267658131577293  0.9018602039853866  0.8310114259047762  1.0000
  H   H31       1.0  0.8326765819286455  0.5981397959800057  0.16898857386791355  1.0000
  H   H32       1.0  0.6673234172552509  0.40186020399692246  0.6689885739620981  1.0000
  H   H33       1.0  0.5175479297851969  0.8372838539489645  0.10806822570082773  1.0000
  H   H34       1.0  0.9824520693986993  0.16271614602796353  0.6080682257950122  1.0000
  H   H35       1.0  0.4824520714405482  0.33728385396050053  0.3919317739776775  1.0000
  H   H36       1.0  0.01754792917232437  0.6627161460164276  0.891931774071862  1.0000
  H   H37       1.0  0.9139003520196979  0.09338863385045565  0.08332357652485244  1.0000
  H   H38       1.0  0.5860996498189199  0.9066113661264725  0.583323576619037  1.0000
  H   H39       1.0  0.08609964920604732  0.5933886338389197  0.4166764235693321  1.0000
  H   H40       1.0  0.4139003514068253  0.4066113661380084  0.9166764236635166  1.0000
  H   H41       1.0  0.7271744576159915  0.7959115442356431  0.014109278930835432  1.0000
  H   H42       1.0  0.7728255415679048  0.20408845574128498  0.5141092790250199  1.0000
  H   H43       1.0  0.2728255409550323  0.2959115442471791  0.4858907211633491  1.0000
  H   H44       1.0  0.22717445965784028  0.704088455729749  0.9858907208418544  1.0000
  H   H45       1.0  0.12552748733359095  0.05151274800477161  0.9880333205953141  1.0000
  H   H46       1.0  0.37447251062456016  0.9484872519721564  0.48803332050112963  1.0000
  H   H47       1.0  0.8744725112374327  0.5515127479932357  0.5119666796872394  1.0000
  H   H48       1.0  0.6255274879464635  0.44848725198369244  0.011966679593054873  1.0000
  H   H49       1.0  0.6505418743108906  0.04940516388920121  0.16471324923808914  1.0000
  H   H50       1.0  0.8494581275277272  0.950594836087727  0.6647132493322737  1.0000
  H   H51       1.0  0.34945812691485456  0.5494051638776652  0.3352867504404161  1.0000
  H   H52       1.0  0.15054187369801802  0.4505948360992628  0.8352867505346007  1.0000
  C   C1        1.0  0.5260145851428633  0.24710360250932698  0.16024029654306393  1.0000
  C   C2        1.0  0.973985414041033  0.7528963974676011  0.6602402966372485  1.0000
  C   C3        1.0  0.4739854134281605  0.747103602497791  0.3397597035511206  1.0000
  C   C4        1.0  0.026014584529990684  0.25289639747913706  0.8397597036453052  1.0000
  C   C5        1.0  0.7009240488695369  0.2071752605841453  0.20725582719628174  1.0000
  C   C6        1.0  0.7990759529690808  0.7928247393927829  0.7072558272904663  1.0000
  C   C7        1.0  0.29907595235620826  0.7071752605726094  0.2927441724822235  1.0000
  C   C8        1.0  0.20092404825666432  0.29282473940431875  0.792744172576408  1.0000
  C   C9        1.0  0.4420730121036003  0.33604245628277  0.16340605053574395  1.0000
  C   C10       1.0  0.05792698850927235  0.663957543694158  0.6634060506299284  1.0000
  C   C11       1.0  0.5579269864674234  0.8360424562712342  0.3365939495584406  1.0000
  C   C12       1.0  0.9420730127164728  0.16395754370569401  0.8365939492369459  1.0000
  C   C13       1.0  0.29474374426726807  0.23706256361723774  0.07208441465967096  1.0000
  C   C14       1.0  0.20525625634560452  0.7629374363596904  0.5720844147538555  1.0000
  C   C15       1.0  0.7052562543037556  0.7370625636057018  0.4279155854345135  1.0000
  C   C16       1.0  0.7947437448801407  0.26293743637122635  0.927915585528698  1.0000
  C   C17       1.0  0.7855762297842321  0.25767763273995337  0.2548522983322051  1.0000
  C   C18       1.0  0.7144237693996642  0.7423223672369748  0.7548522984263896  1.0000
  C   C19       1.0  0.21442377144151306  0.7576776327284175  0.24514770176197945  1.0000
  C   C20       1.0  0.2855762291713595  0.2423223672485107  0.7451477014404847  1.0000
  C   C21       1.0  0.27292511955688253  0.3739219798024236  0.11721384420337265  1.0000
  C   C22       1.0  0.22707488105599008  0.6260780201745046  0.6172138438818778  1.0000
  C   C23       1.0  0.7270748790141411  0.8739219797908876  0.3827861558908119  1.0000
  C   C24       1.0  0.7729251201697551  0.1260780201860405  0.8827861559849964  1.0000
  C   C25       1.0  0.9556648361528275  0.21686302744330127  0.2999084120263296  1.0000
  C   C26       1.0  0.5443351630310687  0.7831369725336268  0.7999084121205141  1.0000
  C   C27       1.0  0.044335162418196156  0.7168630274317653  0.2000915876521756  1.0000
  C   C28       1.0  0.4556648381946764  0.28313697254516274  0.7000915877463602  1.0000
  C   C29       1.0  0.6954567323253124  0.3465899316616782  0.25618158082792625  1.0000
  C   C30       1.0  0.804543266858584  0.65341006831525  0.7561815809221109  1.0000
  C   C31       1.0  0.3045432662457114  0.8465899316501423  0.24381841926625827  1.0000
  C   C32       1.0  0.1954567343671612  0.1534100683267859  0.7438184189447634  1.0000
  C   C33       1.0  0.03726169160753023  0.13074688547713156  0.29660430583449465  1.0000
  C   C34       1.0  0.4627383063506209  0.8692531144997966  0.7966043059286791  1.0000
  C   C35       1.0  0.9627383069634935  0.6307468854655957  0.20339569425968984  1.0000
  C   C36       1.0  0.5372616922204029  0.3692531145113325  0.7033956939381951  1.0000
  C   C37       1.0  0.9445877533657199  0.08634485885533227  0.2480898514752576  1.0000
  C   C38       1.0  0.5554122458181765  0.9136551411215958  0.7480898515694422  1.0000
  C   C39       1.0  0.05541224520530384  0.5863448588437964  0.2519101486189269  1.0000
  C   C40       1.0  0.44458775275284723  0.4136551411331318  0.7519101482974322  1.0000
  C   C41       1.0  0.20094960791485184  0.3242655685277043  0.07109842672100496  1.0000
  C   C42       1.0  0.2990503926980207  0.6757344314492238  0.5710984268151894  1.0000
  C   C43       1.0  0.7990503933108933  0.8242655685161684  0.4289015733731796  1.0000
  C   C44       1.0  0.700949605873003  0.17573443146075982  0.9289015730516847  1.0000
  C   C45       1.0  0.5294306249645166  0.3841151575207424  0.21208455314049887  1.0000
  C   C46       1.0  0.970569376874101  0.6158848424561858  0.7120845532346834  1.0000
  C   C47       1.0  0.47056937626122847  0.8841151575092064  0.28791544695368565  1.0000
  C   C48       1.0  0.029430624351644116  0.11588484246772168  0.7879154466321908  1.0000
  C   C49       1.0  0.7690711654607275  0.8606835681415511  0.02941573831196687  1.0000
  C   C50       1.0  0.7309288363778903  0.13931643183537695  0.5294157384061514  1.0000
  C   C51       1.0  0.23092883576501771  0.3606835681530871  0.4705842617822176  1.0000
  C   C52       1.0  0.26907116484785487  0.639316431823841  0.9705842618764021  1.0000
  C   C53       1.0  0.8769481186376828  0.028821886020740387  0.06743592143393452  1.0000
  C   C54       1.0  0.6230518805462134  0.9711781139561877  0.5674359215281191  1.0000
  C   C55       1.0  0.12305187993334081  0.5288218860092044  0.43256407866025  1.0000
  C   C56       1.0  0.3769481180248103  0.4711781139677237  0.9325640787544345  1.0000
  C   C57       1.0  0.9371008229617411  0.9220081282181974  0.995855207167631  1.0000
  C   C58       1.0  0.5628991762221551  0.07799187175873064  0.49585520748912576  1.0000
  C   C59       1.0  0.06289917560928254  0.42200812822973344  0.5041447926992434  1.0000
  C   C60       1.0  0.4371008223488686  0.5779918717471948  0.004144792605058808  1.0000
  C   C61       1.0  0.6539732796603369  0.8836268530431112  0.08186387049665902  1.0000
  C   C62       1.0  0.8460267195235595  0.11637314693381699  0.5818638705908435  1.0000
  C   C63       1.0  0.3460267215654083  0.38362685305464705  0.4181361291818462  1.0000
  C   C64       1.0  0.15397327904746427  0.6163731475628981  0.9181361292760306  1.0000
  C   C65       1.0  0.7028272505386822  0.9680896582435774  0.101494468557415  1.0000
  C   C66       1.0  0.797172748645214  0.03191034173335073  0.6014944686515995  1.0000
  C   C67       1.0  0.2971727506870629  0.4680896582551133  0.3985055315367695  1.0000
  C   C68       1.0  0.2028272499258097  0.5319103417218147  0.898505531630954  1.0000
  C   C69       1.0  0.9922657596255584  0.005844987950463445  0.015081621781290912  1.0000
  C   C70       1.0  0.5077342395583379  0.9941550120264646  0.5150816218754755  1.0000
  C   C71       1.0  0.0077342416001867555  0.5058449879389275  0.48491837831289364  1.0000
  C   C72       1.0  0.4922657590126858  0.4941550120380006  0.9849183779913988  1.0000
  N   N1        1.0  0.7800602973259664  0.12260508863193893  0.2051294073433126  1.0000
  N   N2        1.0  0.71993970185793  0.8773949113449891  0.7051294074374971  1.0000
  N   N3        1.0  0.21993970124505735  0.622605088620403  0.2948705927508719  1.0000
  N   N4        1.0  0.28006029936781524  0.37739491135652514  0.7948705924293772  1.0000
  N   N5        1.0  0.45118026767715746  0.19891463442902976  0.11492161404039632  1.0000
  N   N6        1.0  0.048819732935715114  0.8010853655478983  0.6149216141345808  1.0000
  N   N7        1.0  0.5488197308938663  0.6989146344174938  0.385078385638109  1.0000
  N   N8        1.0  0.95118026829003  0.3010853655594343  0.8850783857322935  1.0000
  N   N9        1.0  0.05704189375663919  0.8992649931764004  0.9413269451751509  1.0000
  N   N10       1.0  0.4429581068562334  0.10073500680052765  0.4413269450809664  1.0000
  N   N11       1.0  0.942958107469106  0.39926499318793646  0.5586730546917232  1.0000
  N   N12       1.0  0.5570418917147903  0.6007350067889917  0.058673054597538785  1.0000
  O   O1        1.0  0.5799185052221358  0.987734552790241  0.15173690710836843  1.0000
  O   O2        1.0  0.9200814966164819  0.012265447186687106  0.651736907202553  1.0000
  O   O3        1.0  0.4200814960036093  0.4877345528017769  0.3482630929858161  1.0000
  O   O4        1.0  0.07991850460926328  0.5122654471751512  0.8482630926643213  1.0000
  O   O5        1.0  0.012161273684847769  0.8243246814405701  0.9243592347547225  1.0000
  O   O6        1.0  0.4878387242733033  0.175675318536358  0.424359234660538  1.0000
  O   O7        1.0  0.987838724886176  0.324324681452106  0.5756407651121518  1.0000
  O   O8        1.0  0.5121612742977203  0.6756753185248221  0.07564076501796729  1.0000
  O   O9        1.0  0.20456551640555617  0.9560897358712477  0.9123493124613249  1.0000
  O   O10       1.0  0.29543448420731644  0.043910264105680455  0.41234931278281955  1.0000
  O   O11       1.0  0.7954344848201891  0.4560897358827836  0.5876506874055495  1.0000
  O   O12       1.0  0.7045655143637073  0.5439102640941446  0.08765068731136494  1.0000
