data_image0
_chemical_formula_structural       H70C32N12O4Br2
_chemical_formula_sum              "H70 C32 N12 O4 Br2"
_cell_length_a       18.734759638613582
_cell_length_b       7.057061588573363
_cell_length_c       8.389599434127259
_cell_angle_alpha    90.0
_cell_angle_beta     111.00554088182399
_cell_angle_gamma    90.0

_space_group_name_H-M_alt    "P 1"
_space_group_IT_number       1

loop_
  _space_group_symop_operation_xyz
  'x, y, z'

loop_
  _atom_site_type_symbol
  _atom_site_label
  _atom_site_symmetry_multiplicity
  _atom_site_fract_x
  _atom_site_fract_y
  _atom_site_fract_z
  _atom_site_occupancy
  H   H1        1.0  0.8095055615754488  0.5185299567067763  0.6227485104519812  1.0000
  H   H2        1.0  0.1904944380582581  0.5185299567067763  0.37725148968449795  1.0000
  H   H3        1.0  0.3095055618189483  0.018529955897187447  0.6227485100806139  1.0000
  H   H4        1.0  0.69049443834681  0.018529955897187447  0.37725149004529074  1.0000
  H   H5        1.0  0.8861919967948808  0.6524411034551841  0.7720946272304501  1.0000
  H   H6        1.0  0.11380800283882614  0.6524411034551841  0.2279053729060291  1.0000
  H   H7        1.0  0.3861919970383803  0.15244110406261568  0.7720946268590828  1.0000
  H   H8        1.0  0.613808003127378  0.15244110406261568  0.22790537326682192  1.0000
  H   H9        1.0  0.8091492482550436  0.09922885767836462  0.6217948624819102  1.0000
  H   H10       1.0  0.19085075191071477  0.09922885767836462  0.3782051376439946  1.0000
  H   H11       1.0  0.3091492484985432  0.5992288570709331  0.6217948621105429  1.0000
  H   H12       1.0  0.6908507516672151  0.5992288570709331  0.37820513801536176  1.0000
  H   H13       1.0  0.885182293035234  0.9659108645214479  0.7736121714853592  1.0000
  H   H14       1.0  0.1148177071305244  0.9659108645214479  0.22638782864054546  1.0000
  H   H15       1.0  0.38518229274668203  0.4659108651288794  0.7736121711245664  1.0000
  H   H16       1.0  0.6148177074190764  0.4659108651288794  0.22638782900133825  1.0000
  H   H17       1.0  0.49999999971217  0.7858791056861336  0.499999999429861  1.0000
  H   H18       1.0  1.6503642403689495e-10  0.2858791048765448  0.5000000003352509  1.0000
  H   H19       1.0  0.5798957526344708  0.9398297105326519  0.02889171277382896  1.0000
  H   H20       1.0  0.420104246999236  0.9398297105326519  0.9711082873626502  1.0000
  H   H21       1.0  0.07989575287797042  0.4398297097230629  0.028891712402461772  1.0000
  H   H22       1.0  0.9201042472877881  0.4398297097230629  0.971108287723443  1.0000
  H   H23       1.0  0.5761966090953944  0.687874110077215  0.03731712767404673  1.0000
  H   H24       1.0  0.42380339053831256  0.687874110077215  0.9626828724624324  1.0000
  H   H25       1.0  0.0761966093388939  0.1878741092676262  0.03731712730267954  1.0000
  H   H26       1.0  0.9238033908268646  0.1878741092676262  0.9626828728232252  1.0000
  H   H27       1.0  0.6190310532000959  0.5947150435523466  0.5677698979897141  1.0000
  H   H28       1.0  0.3809689469656625  0.5947150435523466  0.4322301021361907  1.0000
  H   H29       1.0  0.11903105291154391  0.0947150441597781  0.5677698976289212  1.0000
  H   H30       1.0  0.8809689472542144  0.0947150441597781  0.43223010249698346  1.0000
  H   H31       1.0  0.5591942184420127  0.49305419774626186  0.6689813776157119  1.0000
  H   H32       1.0  0.44080578172374585  0.49305419774626186  0.3310186225101928  1.0000
  H   H33       1.0  0.05919421815346065  0.9930541985558506  0.6689813772549191  1.0000
  H   H34       1.0  0.9408057820122976  0.9930541985558506  0.3310186228709856  1.0000
  H   H35       1.0  0.7077570142562565  0.800455835492001  0.06815916071783336  1.0000
  H   H36       1.0  0.29224298537745047  0.800455835492001  0.9318408394186457  1.0000
  H   H37       1.0  0.20775701449975598  0.30045583468241227  0.06815916034646619  1.0000
  H   H38       1.0  0.7922429856660024  0.30045583468241227  0.9318408397794385  1.0000
  H   H39       1.0  0.6615841819114047  0.48981194745372536  0.9260490455288507  1.0000
  H   H40       1.0  0.33841581825435363  0.48981194745372536  0.07395095459705404  1.0000
  H   H41       1.0  0.16158418162285285  0.9898119468462938  0.926049045168058  1.0000
  H   H42       1.0  0.8384158180108541  0.9898119468462938  0.07395095496842122  1.0000
  H   H43       1.0  0.7208068508774396  0.6024792495624965  0.8298892156852777  1.0000
  H   H44       1.0  0.27919314928831884  0.6024792495624965  0.17011078444062702  1.0000
  H   H45       1.0  0.2208068505888876  0.10247924875290775  0.8298892153244849  1.0000
  H   H46       1.0  0.7791931490448193  0.10247924875290775  0.1701107848119942  1.0000
  H   H47       1.0  0.48182187677964483  0.6849339203481646  0.7705083240204391  1.0000
  H   H48       1.0  0.5181781228540622  0.6849339203481646  0.2294916761160399  1.0000
  H   H49       1.0  0.9818218768588298  0.18493392095559613  0.770508323104475  1.0000
  H   H50       1.0  0.018178123097561633  0.18493392095559613  0.2294916757446727  1.0000
  H   H51       1.0  0.4865158685693949  0.9371550959266858  0.7598818790936905  1.0000
  H   H52       1.0  0.5134841315963634  0.9371550959266858  0.24011812103221425  1.0000
  H   H53       1.0  0.9865158683258954  0.437155095117097  0.7598818794650577  1.0000
  H   H54       1.0  0.01348413183986299  0.437155095117097  0.24011812066084706  1.0000
  H   H55       1.0  0.566863129458199  0.08185343471216257  0.6326191269180416  1.0000
  H   H56       1.0  0.43313687017550784  0.08185343471216257  0.36738087321843754  1.0000
  H   H57       1.0  0.06686312970169864  0.581853434104731  0.6326191265466745  1.0000
  H   H58       1.0  0.9331368704640598  0.581853434104731  0.3673808735792304  1.0000
  H   H59       1.0  0.6261913666966512  0.9420810384827614  0.5543051374847183  1.0000
  H   H60       1.0  0.37380863346910714  0.9420810384827614  0.44569486264118635  1.0000
  H   H61       1.0  0.12619136694015073  0.4420810390901929  0.5543051371133512  1.0000
  H   H62       1.0  0.8738086332256078  0.4420810390901929  0.4456948630125535  1.0000
  H   H63       1.0  0.7245761801517083  0.9670750700334563  0.8183660026428835  1.0000
  H   H64       1.0  0.27542382001405014  0.9670750700334563  0.1816339974830213  1.0000
  H   H65       1.0  0.2245761803952078  0.4670750692238675  0.8183660022715162  1.0000
  H   H66       1.0  0.7754238195611837  0.4670750692238675  0.18163399657763143  1.0000
  H   H67       1.0  0.6644746130397893  0.09917245601670922  0.899302205817074  1.0000
  H   H68       1.0  0.33552538638455076  0.09917245601670922  0.10069779304264814  1.0000
  H   H69       1.0  0.16447461349265563  0.5991724554092777  0.8993022067224639  1.0000
  H   H70       1.0  0.8355253866731027  0.5991724554092777  0.1006977934034409  1.0000
  C   C1        1.0  0.8016935346031491  0.8086767500003762  0.5984807890440468  1.0000
  C   C2        1.0  0.1983064650305578  0.8086767500003762  0.4015192110924324  1.0000
  C   C3        1.0  0.3016935348466486  0.30867675060780775  0.5984807886726795  1.0000
  C   C4        1.0  0.6983064653191097  0.30867675060780775  0.4015192114532252  1.0000
  C   C5        1.0  0.5839723193647246  0.8085205872708651  0.9627331706657047  1.0000
  C   C6        1.0  0.4160276808010338  0.8085205872708651  0.03726682946019996  1.0000
  C   C7        1.0  0.08397231928553948  0.30852058787829667  0.962733171581669  1.0000
  C   C8        1.0  0.9160276808802188  0.30852058787829667  0.03726682854423568  1.0000
  C   C9        1.0  0.5990152313051157  0.609540644645216  0.6750454162578288  1.0000
  C   C10       1.0  0.40098476886064277  0.609540644645216  0.32495458386807596  1.0000
  C   C11       1.0  0.0990152310165637  0.10954064383562716  0.675045415897036  1.0000
  C   C12       1.0  0.9009847686171433  0.10954064383562716  0.3249545842394432  1.0000
  C   C13       1.0  0.661879203063913  0.7970235372619247  0.9420126067041596  1.0000
  C   C14       1.0  0.33812079710184534  0.7970235372619247  0.057987393421745095  1.0000
  C   C15       1.0  0.1618792035167794  0.2970235378693563  0.9420126076095495  1.0000
  C   C16       1.0  0.838120796648979  0.2970235378693563  0.05798739251635522  1.0000
  C   C17       1.0  0.6658812980234765  0.6122298928205088  0.8488758821534079  1.0000
  C   C18       1.0  0.33411870140086364  0.6122298928205088  0.15112411670631418  1.0000
  C   C19       1.0  0.1658812984763428  0.11222989342794035  0.8488758830587978  1.0000
  C   C20       1.0  0.8341187016894156  0.11222989342794035  0.15112411706710696  1.0000
  C   C21       1.0  0.5203294228886929  0.8059732565193372  0.7844146481783616  1.0000
  C   C22       1.0  0.47967057727706536  0.8059732565193372  0.21558535194754316  1.0000
  C   C23       1.0  0.020329423132192485  0.30597325570974826  0.7844146478069944  1.0000
  C   C24       1.0  0.9796705770335657  0.30597325570974826  0.21558535231891035  1.0000
  C   C25       1.0  0.6038268572792083  0.9558915612870129  0.6577972299560689  1.0000
  C   C26       1.0  0.3961731423544986  0.9558915612870129  0.3422027701804102  1.0000
  C   C27       1.0  0.10382685752270784  0.4558915618944444  0.6577972295847018  1.0000
  C   C28       1.0  0.8961731426430506  0.4558915618944444  0.342202770541203  1.0000
  C   C29       1.0  0.6689109643594164  0.9669828531820328  0.8342373975162227  1.0000
  C   C30       1.0  0.3310890355969751  0.9669828531820328  0.16576260133292484  1.0000
  C   C31       1.0  0.16891096428023136  0.46698285378946436  0.8342373984321871  1.0000
  C   C32       1.0  0.8310890353534756  0.46698285378946436  0.16576260170429202  1.0000
  N   N1        1.0  0.8363716198395177  0.6454448261263955  0.6693172437045449  1.0000
  N   N2        1.0  0.16362838011687375  0.6454448261263955  0.3306827551446027  1.0000
  N   N3        1.0  0.33637162029238415  0.1454448253168068  0.6693172446099348  1.0000
  N   N4        1.0  0.6636283798733742  0.1454448253168068  0.3306827555159699  1.0000
  N   N5        1.0  0.8366451256073921  0.9726200322686394  0.6675175002163289  1.0000
  N   N6        1.0  0.16335487455836625  0.9726200322686394  0.33248249990957573  1.0000
  N   N7        1.0  0.3366451255282071  0.47262003287607085  0.6675175011322934  1.0000
  N   N8        1.0  0.6633548746375514  0.47262003287607085  0.3324824989936115  1.0000
  N   N9        1.0  0.5539937627353521  0.7886462687262888  0.6493458953499309  1.0000
  N   N10       1.0  0.44600623743040635  0.7886462687262888  0.3506541047759737  1.0000
  N   N11       1.0  0.05399376244680014  0.28864626791670006  0.6493458949891383  1.0000
  N   N12       1.0  0.9460062371869068  0.28864626791670006  0.35065410514734086  1.0000
  O   O1        1.0  0.7389473250036908  0.8084561340994861  0.47150795614130286  1.0000
  O   O2        1.0  0.2610526751620676  0.8084561340994861  0.5284920439846018  1.0000
  O   O3        1.0  0.2389473252471903  0.30845613328989735  0.47150795576993565  1.0000
  O   O4        1.0  0.7610526749185681  0.30845613328989735  0.5284920443559691  1.0000
  Br  Br1       1.0  0.500000000288552  0.31080443077774034  3.6079277116961915e-10  1.0000
  Br  Br2       1.0  0.0  0.8108044301703087  0.0  1.0000
