data_image0
_chemical_formula_structural       H76C40N8O16I4
_chemical_formula_sum              "H76 C40 N8 O16 I4"
_cell_length_a       7.21145972248373
_cell_length_b       7.527570856803253
_cell_length_c       24.421878285741325
_cell_angle_alpha    90.0
_cell_angle_beta     90.0
_cell_angle_gamma    90.0

_space_group_name_H-M_alt    "P 1"
_space_group_IT_number       1

loop_
  _space_group_symop_operation_xyz
  'x, y, z'

loop_
  _atom_site_type_symbol
  _atom_site_label
  _atom_site_symmetry_multiplicity
  _atom_site_fract_x
  _atom_site_fract_y
  _atom_site_fract_z
  _atom_site_occupancy
  H   H1        1.0  0.7321953187282622  0.5339009790080869  0.37145491161080985  1.0000
  H   H2        1.0  0.7678046821417981  0.46609902141658494  0.871454911493265  1.0000
  H   H3        1.0  0.26780468092732346  0.03390097879575096  0.12854508827164546  1.0000
  H   H4        1.0  0.23219531890046938  0.9660990216289208  0.6285450885635697  1.0000
  H   H5        1.0  0.5036972887299094  0.17259479647751094  0.4438452437267549  1.0000
  H   H6        1.0  0.9963027121401509  0.8274052039471609  0.9438452436092102  1.0000
  H   H7        1.0  0.496302712312358  0.6725947966898468  0.05615475615570046  1.0000
  H   H8        1.0  0.0036972875154347995  0.32740520373482496  0.5561547564476247  1.0000
  H   H9        1.0  0.7465452872481388  0.9342245172815921  0.384771753837064  1.0000
  H   H10       1.0  0.7534547136219214  0.06577548314307964  0.8847717537195192  1.0000
  H   H11       1.0  0.2534547137941286  0.43422451706925624  0.11522824604539128  1.0000
  H   H12       1.0  0.246545287420346  0.5657754833554155  0.6152282463373155  1.0000
  H   H13       1.0  0.5230966399547149  0.9189015622149183  0.40414646672621385  1.0000
  H   H14       1.0  0.9769033595286636  0.08109843820975352  0.904146466608669  1.0000
  H   H15       1.0  0.4769033597008708  0.4189015620025824  0.09585353315624148  1.0000
  H   H16       1.0  0.023096640126922068  0.5810984384220894  0.5958535330386968  1.0000
  H   H17       1.0  0.8545909797964492  0.7919322120511538  0.45645819988008407  1.0000
  H   H18       1.0  0.6454090210736112  0.2080677870450681  0.9564582001720083  1.0000
  H   H19       1.0  0.14540902124581834  0.291932211838818  0.04354180000237117  1.0000
  H   H20       1.0  0.35459097858197447  0.7080677872574039  0.5435417998848264  1.0000
  H   H21       1.0  0.62039838148872  0.7348308511770114  0.47208912373997725  1.0000
  H   H22       1.0  0.8796016193813403  0.2651691479192105  0.9720891236224325  1.0000
  H   H23       1.0  0.37960161816686566  0.23483085096467557  0.02791087655194695  1.0000
  H   H24       1.0  0.12039838166092716  0.7651691481315464  0.5279108764344023  1.0000
  H   H25       1.0  0.826731559133859  0.9376143066951237  0.5447543589539333  1.0000
  H   H26       1.0  0.6732684403495195  0.062385693729548136  0.04475435907147805  1.0000
  H   H27       1.0  0.1732684405217267  0.4376143064827877  0.9552456411029014  1.0000
  H   H28       1.0  0.32673155930606607  0.5623856939418841  0.4552456408109773  1.0000
  H   H29       1.0  0.5883869858928652  0.9831405829028425  0.5346501406332617  1.0000
  H   H30       1.0  0.9116130135905133  0.01685941752182925  0.03465014075080642  1.0000
  H   H31       1.0  0.41161301376272047  0.48314058269050664  0.965349859423573  1.0000
  H   H32       1.0  0.08838698606507235  0.5168594177341651  0.46534985954111774  1.0000
  H   H33       1.0  0.7339856095288539  0.2705934568731537  0.5115186610070683  1.0000
  H   H34       1.0  0.7660143913412065  0.729406543551518  0.011518660715144128  1.0000
  H   H35       1.0  0.2660143915134136  0.7705934570854895  0.9884813390497665  1.0000
  H   H36       1.0  0.23398560970106103  0.22940654333918215  0.4884813391673112  1.0000
  H   H37       1.0  0.9159016529492794  0.15938254090503584  0.47500017706553194  1.0000
  H   H38       1.0  0.584098347920781  0.840617459519636  0.9750001769479872  1.0000
  H   H39       1.0  0.08409834809298809  0.6593825411173717  0.02499982322639223  1.0000
  H   H40       1.0  0.41590165173480476  0.3406174593073001  0.5249998231088475  1.0000
  H   H41       1.0  0.8967765901592872  0.9380731054318873  0.2819303728173911  1.0000
  H   H42       1.0  0.6032234093240912  0.06192689499278451  0.7819303731093152  1.0000
  H   H43       1.0  0.10322340949629832  0.43807310521955134  0.21806962706506422  1.0000
  H   H44       1.0  0.39677659033149454  0.5619268952051204  0.7180696269475195  1.0000
  H   H45       1.0  0.8751665810907867  0.6873435970813649  0.19166924080253686  1.0000
  H   H46       1.0  0.6248334197792735  0.3126564020148571  0.6916692406849921  1.0000
  H   H47       1.0  0.1248334199514807  0.187343596869029  0.3083307594893874  1.0000
  H   H48       1.0  0.37516658126299396  0.8126564022271929  0.8083307593718426  1.0000
  H   H49       1.0  0.03495118737391917  0.8460537909442701  0.2057212766854756  1.0000
  H   H50       1.0  0.46504881245387364  0.15394620948040164  0.7057212765679309  1.0000
  H   H51       1.0  0.9650488122816664  0.34605379073193426  0.2942787236064486  1.0000
  H   H52       1.0  0.534951187201712  0.6539462096927375  0.7942787234889038  1.0000
  H   H53       1.0  0.7253321520595654  0.8620087613171434  0.1344870219059935  1.0000
  H   H54       1.0  0.7746678474238131  0.1379912391075284  0.6344870221979176  1.0000
  H   H55       1.0  0.27466784759602025  0.3620087611048075  0.3655129779764618  1.0000
  H   H56       1.0  0.22533215223177253  0.6379912393198643  0.8655129778589171  1.0000
  H   H57       1.0  0.9058457997946251  0.02217915090750818  0.1426631526549777  1.0000
  H   H58       1.0  0.5941542010754352  0.9778208495171636  0.6426631529469019  1.0000
  H   H59       1.0  0.0941541998609605  0.522179151119844  0.3573368472274776  1.0000
  H   H60       1.0  0.4058457999668323  0.4778208493048277  0.8573368471099329  1.0000
  H   H61       1.0  0.7436114179880727  0.17490343764882502  0.21487157656762967  1.0000
  H   H62       1.0  0.7563885814953057  0.8250965627758468  0.7148715764500849  1.0000
  H   H63       1.0  0.25638858166751294  0.6749034378611609  0.28512842372429453  1.0000
  H   H64       1.0  0.2436114181602799  0.3250965625635109  0.7851284236067498  1.0000
  H   H65       1.0  0.5512333318046856  0.10418355202743962  0.17620898686210004  1.0000
  H   H66       1.0  0.9487666676786929  0.8958164470687823  0.6762089867445553  1.0000
  H   H67       1.0  0.4487666678509  0.6041835522397755  0.32379101302035523  1.0000
  H   H68       1.0  0.051233331976892775  0.39581644818489625  0.8237910129028104  1.0000
  H   H69       1.0  0.5178248334879229  0.8331294821797671  0.2333650976111644  1.0000
  H   H70       1.0  0.9821751659954555  0.1668705182449047  0.7333650974936197  1.0000
  H   H71       1.0  0.4821751661676628  0.3331294819674312  0.26663490227129094  1.0000
  H   H72       1.0  0.017824833660130036  0.6668705184572405  0.7666349021537462  1.0000
  H   H73       1.0  0.5640758385320341  0.00134943133624833  0.282605111664551  1.0000
  H   H74       1.0  0.9359241623380261  0.9986505690884234  0.7826051119564752  1.0000
  H   H75       1.0  0.43592416251023336  0.5013494302201345  0.21739488821790431  1.0000
  H   H76       1.0  0.06407583731755946  0.49865056887608755  0.7173948881003597  1.0000
  C   C1        1.0  0.7099548450693784  0.2680461145279575  0.3885256059743718  1.0000
  C   C2        1.0  0.7900451544139999  0.7319538858967142  0.888525606266296  1.0000
  C   C3        1.0  0.29004515458620717  0.7680461147402934  0.11147439390808353  1.0000
  C   C4        1.0  0.20995484524158567  0.23195388568437839  0.6114743937905388  1.0000
  C   C5        1.0  0.6503474068332885  0.14562540836254945  0.43455296295519374  1.0000
  C   C6        1.0  0.84965259265009  0.8543745920621223  0.9345529628376491  1.0000
  C   C7        1.0  0.34965259282229716  0.6456254085748854  0.06544703692726157  1.0000
  C   C8        1.0  0.15034740700549565  0.3543745918497864  0.5654470372191858  1.0000
  C   C9        1.0  0.7172263326763203  0.8451120595232244  0.4663799871056585  1.0000
  C   C10       1.0  0.7827736668070582  0.1548879409014474  0.9663799869881137  1.0000
  C   C11       1.0  0.28277366697926537  0.3451120593108885  0.03362001318626573  1.0000
  C   C12       1.0  0.21722633284852744  0.6548879411137833  0.5336200130687211  1.0000
  C   C13       1.0  0.7237886351533701  0.9768102273463839  0.5140530397831732  1.0000
  C   C14       1.0  0.7762113643300084  0.023189773078287814  0.014053039900717944  1.0000
  C   C15       1.0  0.27621136450221556  0.4768102271340481  0.9859469598641926  1.0000
  C   C16       1.0  0.22378863532557725  0.5231897732906237  0.4859469599817373  1.0000
  C   C17       1.0  0.768463281119366  0.15407740585421026  0.4864680800139926  1.0000
  C   C18       1.0  0.7315367183640125  0.8459225932420117  0.9864680798964479  1.0000
  C   C19       1.0  0.23153671853621963  0.6540774060665461  0.013531920277931582  1.0000
  C   C20       1.0  0.2684632812915732  0.3459225943581256  0.5135319201603868  1.0000
  C   C21       1.0  0.797879982891769  0.6708968624899384  0.2902780272285191  1.0000
  C   C22       1.0  0.7021200179782913  0.3291031379347334  0.7902780275204433  1.0000
  C   C23       1.0  0.20212001815049846  0.17089686227760253  0.20972197265393616  1.0000
  C   C24       1.0  0.2978799816772944  0.8291031381470693  0.7097219725363915  1.0000
  C   C25       1.0  0.8071194021722045  0.845828208212164  0.25935864866291264  1.0000
  C   C26       1.0  0.692880597311174  0.15417179221250776  0.7593586489548368  1.0000
  C   C27       1.0  0.19288059748338116  0.34582820799982816  0.2406413512195426  1.0000
  C   C28       1.0  0.3071194023444117  0.6541717910963938  0.7406413511019979  1.0000
  C   C29       1.0  0.8000788151130129  0.9446297863238902  0.16414764757633438  1.0000
  C   C30       1.0  0.6999211843703655  0.05537021410078158  0.6641476478682585  1.0000
  C   C31       1.0  0.1999211845425727  0.4446297861115543  0.3358523523061209  1.0000
  C   C32       1.0  0.3000788152852201  0.5553702129846677  0.8358523521885762  1.0000
  C   C33       1.0  0.6707630238741743  0.056828113363208525  0.19953761553406568  1.0000
  C   C34       1.0  0.8292369756092042  0.9431718870614632  0.69953761582599  1.0000
  C   C35       1.0  0.3292369757814115  0.5568281135755444  0.30046238434838957  1.0000
  C   C36       1.0  0.17076302404638138  0.4431718868491274  0.8004623842308448  1.0000
  C   C37       1.0  0.6199112096628764  0.9325412093139829  0.24675784882272714  1.0000
  C   C38       1.0  0.8800887898205021  0.06745878978223908  0.7467578491146513  1.0000
  C   C39       1.0  0.38008878999270923  0.4325412104300968  0.2532421510597282  1.0000
  C   C40       1.0  0.11991120983508355  0.567458789994575  0.7532421509421835  1.0000
  N   N1        1.0  0.6571663438990651  0.9545397255883715  0.41745338547331684  1.0000
  N   N2        1.0  0.8428336555843133  0.045460274836300246  0.9174533853557721  1.0000
  N   N3        1.0  0.3428336557565205  0.45453972537603565  0.08254661440913844  1.0000
  N   N4        1.0  0.1571663440712723  0.5454602750486361  0.5825466147010626  1.0000
  N   N5        1.0  0.8933032503690217  0.818863536093993  0.20390235557382896  1.0000
  N   N6        1.0  0.6066967505010386  0.18113646300222905  0.7039023554562842  1.0000
  N   N7        1.0  0.10669674928656386  0.31886353588165706  0.29609764430862634  1.0000
  N   N8        1.0  0.393303250541229  0.6811364632145649  0.7960976441910815  1.0000
  O   O1        1.0  0.6949810610983839  0.43544778818488816  0.40289200629358246  1.0000
  O   O2        1.0  0.8050189383849946  0.5645522109113339  0.9028920065855067  1.0000
  O   O3        1.0  0.30501893855720175  0.9354477883972241  0.09710799358887277  1.0000
  O   O4        1.0  0.1949810612705911  0.06455221202744774  0.597107993471328  1.0000
  O   O5        1.0  0.7647248271811231  0.20956185069640332  0.3441217154417938  1.0000
  O   O6        1.0  0.7352751723022554  0.7904381497282685  0.844121715733718  1.0000
  O   O7        1.0  0.23527517247446264  0.7095618509087392  0.15587828444066146  1.0000
  O   O8        1.0  0.2647248273533302  0.29043814951593255  0.6558782843231168  1.0000
  O   O9        1.0  0.7640669423446858  0.6863922423699672  0.34182655045308263  1.0000
  O   O10       1.0  0.7359330585253745  0.3136077580547046  0.8418265507450068  1.0000
  O   O11       1.0  0.23593305869758166  0.1863922421576313  0.15817344942937267  1.0000
  O   O12       1.0  0.26406694251689294  0.8136077582670406  0.658173449311828  1.0000
  O   O13       1.0  0.8205012116412537  0.5290974506603835  0.2643629046243124  1.0000
  O   O14       1.0  0.6794987878421248  0.47090254976428825  0.7643629045067677  1.0000
  O   O15       1.0  0.17949878801433192  0.029097450448047617  0.23563709525814286  1.0000
  O   O16       1.0  0.3205012118134609  0.9709025499766242  0.7356370955500671  1.0000
  I   I1        1.0  0.6904490258021035  0.5464221391264025  0.605292410642742  1.0000
  I   I2        1.0  0.8095509736812749  0.45357785996981953  0.10529241076028663  1.0000
  I   I3        1.0  0.309550973853482  0.0464221402425164  0.8947075894140929  1.0000
  I   I4        1.0  0.1904490259743108  0.9535778601821554  0.3947075895316376  1.0000
