data_image0
_chemical_formula_structural       H22C34N2O4F4I2
_chemical_formula_sum              "H22 C34 N2 O4 F4 I2"
_cell_length_a       6.310682027584012
_cell_length_b       11.306116269683121
_cell_length_c       12.242213544436412
_cell_angle_alpha    106.89534888601091
_cell_angle_beta     105.55525783351113
_cell_angle_gamma    103.50415458456133

_space_group_name_H-M_alt    "P 1"
_space_group_IT_number       1

loop_
  _space_group_symop_operation_xyz
  'x, y, z'

loop_
  _atom_site_type_symbol
  _atom_site_label
  _atom_site_symmetry_multiplicity
  _atom_site_fract_x
  _atom_site_fract_y
  _atom_site_fract_z
  _atom_site_occupancy
  H   H1        1.0  0.13801341361093994  0.9040310037401122  0.18269763586788337  1.0000
  H   H2        1.0  0.8619865860304468  0.09596899640617552  0.8173023641689185  1.0000
  H   H3        1.0  0.7476309730175814  0.1935967641143787  0.48930415850230696  1.0000
  H   H4        1.0  0.25236902662380517  0.8064032360319089  0.5106958415344949  1.0000
  H   H5        1.0  0.38911455767649517  0.6871095613467599  0.9217042878106703  1.0000
  H   H6        1.0  0.6108854435528218  0.31289043879227396  0.07829571223891997  1.0000
  H   H7        1.0  0.7528083224640623  0.8791008733794716  0.010686474658527503  1.0000
  H   H8        1.0  0.24719167876525466  0.12089912675956223  0.9893135253910628  1.0000
  H   H9        1.0  0.9195758993896661  0.3885740547744657  0.6809534300078551  1.0000
  H   H10       1.0  0.080424101839651  0.6114259453645683  0.3190465700417352  1.0000
  H   H11       1.0  0.04128307533235523  0.5586161124598394  0.8311531000910224  1.0000
  H   H12       1.0  0.9587169258969619  0.4413838876791946  0.16884689995856808  1.0000
  H   H13       1.0  0.5169481351886304  0.08837889057966725  0.2619976186315673  1.0000
  H   H14       1.0  0.4830518644527562  0.9116211095666205  0.7380023814052347  1.0000
  H   H15       1.0  0.11289035964155501  0.08866137088524265  0.5640823877929267  1.0000
  H   H16       1.0  0.8871096396092983  0.9113386283587029  0.43591761226125486  1.0000
  H   H17       1.0  0.2882552619302935  0.2861526698056897  0.7570223065235019  1.0000
  H   H18       1.0  0.7117447373205599  0.7138473294382558  0.2429776935306796  1.0000
  H   H19       1.0  0.34216216952854583  0.04203235558706657  0.4292453611392075  1.0000
  H   H20       1.0  0.6578378301128407  0.9579676445592212  0.5707546388975944  1.0000
  H   H21       1.0  0.7212151550261079  0.59575536659703  0.011964200358250592  1.0000
  H   H22       1.0  0.27878484461527875  0.4042446335492577  0.9880357996785514  1.0000
  C   C1        1.0  0.6836638964771479  0.6172027100425688  0.5867725780746752  1.0000
  C   C2        1.0  0.3163361031642387  0.382797290103719  0.4132274219621267  1.0000
  C   C3        1.0  0.29834505348684776  0.45652544133125433  0.521372881965534  1.0000
  C   C4        1.0  0.7016549457640057  0.5434745579126911  0.4786271180886476  1.0000
  C   C5        1.0  0.4775270230362738  0.5712380744890491  0.6061162912843833  1.0000
  C   C6        1.0  0.5224729766051128  0.4287619256572387  0.3938837087524186  1.0000
  C   C7        1.0  0.7072474467751584  0.4679460602796617  0.8453415312693254  1.0000
  C   C8        1.0  0.29275255383754756  0.5320539394716679  0.1546584678650274  1.0000
  C   C9        1.0  0.2302299453298586  0.7800048246820276  0.04425343000114663  1.0000
  C   C10       1.0  0.769770054311528  0.21999517546426015  0.9557465700356552  1.0000
  C   C11       1.0  0.2699649004911724  0.8951049311968571  0.14207493990294287  1.0000
  C   C12       1.0  0.7300350991502143  0.1048950689494307  0.857925060133859  1.0000
  C   C13       1.0  0.6457318511633915  0.2127803753642028  0.5475097838207493  1.0000
  C   C14       1.0  0.35426814847799526  0.787219624782085  0.45249021621605257  1.0000
  C   C15       1.0  0.6136329851227674  0.35094459264074074  0.7308765074458099  1.0000
  C   C16       1.0  0.38636701451861916  0.649055407505547  0.26912349259099194  1.0000
  C   C17       1.0  0.4068021548428996  0.7742186516223233  0.9959444715920698  1.0000
  C   C18       1.0  0.5931978444079538  0.22578134762162214  0.004055528462111809  1.0000
  C   C19       1.0  0.6127798788365371  0.8814330820796754  0.04674820152675741  1.0000
  C   C20       1.0  0.3872201208048496  0.11856691806661236  0.9532517985100445  1.0000
  C   C21       1.0  0.007270460710607954  0.6707647175936782  0.9958088552671386  1.0000
  C   C22       1.0  0.9927295389307788  0.32923528255260953  0.004191144769663362  1.0000
  C   C23       1.0  0.7428867039875953  0.32351759525113644  0.6556696678836414  1.0000
  C   C24       1.0  0.2571132972417217  0.6764824048878976  0.3443303321659489  1.0000
  C   C25       1.0  0.931957894454255  0.5651311150541773  0.8858183990986674  1.0000
  C   C26       1.0  0.06804210518713158  0.43486888509211047  0.1141816009381344  1.0000
  C   C27       1.0  0.4808598745279779  0.9971117631414189  0.18665984409775624  1.0000
  C   C28       1.0  0.5191401251134088  0.0028882370048687995  0.8133401559390457  1.0000
  C   C29       1.0  0.28998824042825316  0.15410767771259534  0.589621036822037  1.0000
  C   C30       1.0  0.7100117592131336  0.8458923224336924  0.4103789632147649  1.0000
  C   C31       1.0  0.38627049470806896  0.26458161712352973  0.6973202590016169  1.0000
  C   C32       1.0  0.6137295061307148  0.7354183821131619  0.30267974106535317  1.0000
  C   C33       1.0  0.4186345296181383  0.1282979114950434  0.5140638755999779  1.0000
  C   C34       1.0  0.5813654700232485  0.8717020886512443  0.48593612443682394  1.0000
  N   N1        1.0  0.6508838729975132  0.9909858730084747  0.14080079439324267  1.0000
  N   N2        1.0  0.3491161278412705  0.0090141262282168  0.8591992056737273  1.0000
  O   O1        1.0  0.8768670329600827  0.6810381221741691  0.06432733802828158  1.0000
  O   O2        1.0  0.12313296668130405  0.3189618779721187  0.9356726620085204  1.0000
  O   O3        1.0  0.578577816999657  0.4812595811881243  0.9097162023112935  1.0000
  O   O4        1.0  0.42142218225119643  0.5187404180558212  0.09028379774288815  1.0000
  F   F1        1.0  0.10323336550109627  0.4167199831434132  0.5466496958659469  1.0000
  F   F2        1.0  0.8967666341402902  0.5832800170028746  0.453350304170855  1.0000
  F   F3        1.0  0.4479148661709071  0.6384042870229582  0.7095513510934032  1.0000
  F   F4        1.0  0.5520851334704795  0.3615957131233296  0.2904486489433987  1.0000
  I   I1        1.0  0.9595683129437368  0.7913864623945585  0.715271634191343  1.0000
  I   I2        1.0  0.04043168630711661  0.20861353684938702  0.28472836586283856  1.0000
