data_image0
_chemical_formula_structural       H66C120N6O12F24I12
_chemical_formula_sum              "H66 C120 N6 O12 F24 I12"
_cell_length_a       12.869742460010242
_cell_length_b       13.167629793442606
_cell_length_c       18.894364277668252
_cell_angle_alpha    105.64787834931549
_cell_angle_beta     93.38278995434582
_cell_angle_gamma    107.31106266635548

_space_group_name_H-M_alt    "P 1"
_space_group_IT_number       1

loop_
  _space_group_symop_operation_xyz
  'x, y, z'

loop_
  _atom_site_type_symbol
  _atom_site_label
  _atom_site_symmetry_multiplicity
  _atom_site_fract_x
  _atom_site_fract_y
  _atom_site_fract_z
  _atom_site_occupancy
  H   H1        1.0  0.9801796824307409  0.013683396743697365  0.26800887476358604  1.0000
  H   H2        1.0  0.01982031780931986  0.9863166032206451  0.7319911251662795  1.0000
  H   H3        1.0  0.18199201000238624  0.07345767686464004  0.41532907392228396  1.0000
  H   H4        1.0  0.8180079902376746  0.9265423230997024  0.5846709260075815  1.0000
  H   H5        1.0  0.23094893482638335  0.36061833589551634  0.33705378440685135  1.0000
  H   H6        1.0  0.7690510654136775  0.6393816640688262  0.6629462155230141  1.0000
  H   H7        1.0  0.3421768731679209  0.18187226366066614  0.5153910931339047  1.0000
  H   H8        1.0  0.6578231262982277  0.8181277363103763  0.4846089068065835  1.0000
  H   H9        1.0  0.8257807015507054  0.9955320756118683  0.07853116131818406  1.0000
  H   H10       1.0  0.17421929805457922  0.004467924609248653  0.9214688391782482  1.0000
  H   H11       1.0  0.03010613620393067  0.335578350309792  0.19077754134859784  1.0000
  H   H12       1.0  0.9698938640361303  0.6644216496545505  0.8092224585812677  1.0000
  H   H13       1.0  0.1139729145381463  0.2654230394328492  0.2513530526390964  1.0000
  H   H14       1.0  0.8860270858410508  0.734576960781568  0.748646947846713  1.0000
  H   H15       1.0  0.7658075517911742  0.06341405991322446  0.9760983203517365  1.0000
  H   H16       1.0  0.23419244767497446  0.9365859400578179  0.02390167958875187  1.0000
  H   H17       1.0  0.9591118923754952  0.38927719362670876  0.08634774211098914  1.0000
  H   H18       1.0  0.04088810786456575  0.6107228063376338  0.9136522578188764  1.0000
  H   H19       1.0  0.3893579463176711  0.4670987490521073  0.4352546192724849  1.0000
  H   H20       1.0  0.6106420531484774  0.532901250918935  0.5647453806680034  1.0000
  H   H21       1.0  0.44650168308001414  0.37773970812102264  0.5252621245295372  1.0000
  H   H22       1.0  0.5534983171600466  0.6222602918433198  0.4747378754003283  1.0000
  H   H23       1.0  0.9681175348506565  0.5310625090626865  0.2370449656581564  1.0000
  H   H24       1.0  0.031882465389404216  0.468937490901656  0.7629550342717091  1.0000
  H   H25       1.0  0.05023108700924752  0.8619558976447778  0.18028844055464563  1.0000
  H   H26       1.0  0.9497689132308132  0.13804410231956474  0.8197115593752199  1.0000
  H   H27       1.0  0.11488371211174209  0.7971177129895931  0.25472135541604324  1.0000
  H   H28       1.0  0.8851162881283188  0.20288228697474944  0.7452786445138224  1.0000
  H   H29       1.0  0.21736497679635322  0.8899878377500415  0.34678516347821303  1.0000
  H   H30       1.0  0.7826350226697952  0.11001216222100081  0.6532148364622752  1.0000
  H   H31       1.0  0.37060119170744565  0.995946842639296  0.4488519059921556  1.0000
  H   H32       1.0  0.6293988086717515  0.004053157575121224  0.551148094493654  1.0000
  H   H33       1.0  0.8318591894033669  0.525179618996989  0.07574180617953657  1.0000
  H   H34       1.0  0.16814081097583  0.47482038121742826  0.924258194306273  1.0000
  H   H35       1.0  0.3371952917037288  0.6996931573532946  0.5145275759706878  1.0000
  H   H36       1.0  0.6628047077624197  0.3003068426177476  0.4854724239698005  1.0000
  H   H37       1.0  0.18465802488126656  0.5915835795652438  0.4094921856686418  1.0000
  H   H38       1.0  0.8153419753587943  0.4084164203990987  0.5905078142612237  1.0000
  H   H39       1.0  0.978598558248292  0.91488302678334  0.07583554181750761  1.0000
  H   H40       1.0  0.021401441991768883  0.08511697318100245  0.924164458112358  1.0000
  H   H41       1.0  0.7650938807821126  0.593722446475196  0.9759854288113379  1.0000
  H   H42       1.0  0.23490611868403585  0.4062775534958462  0.024014571129150328  1.0000
  H   H43       1.0  0.4317169568766738  0.9017055738455502  0.5337852886716591  1.0000
  H   H44       1.0  0.5682830425894748  0.09829442612549212  0.4662147112688292  1.0000
  H   H45       1.0  0.3554218840097273  0.5561058509967326  0.97027265715017  1.0000
  H   H46       1.0  0.6445781162303336  0.44389414896760987  0.029727342779695708  1.0000
  H   H47       1.0  0.5457890976828051  0.9158729987696228  0.9639524211414096  1.0000
  H   H48       1.0  0.4542109017833434  0.08412700120141955  0.036047578799078515  1.0000
  H   H49       1.0  0.2458079306217716  0.7974320037932361  0.750807432501176  1.0000
  H   H50       1.0  0.7541920696182894  0.2025679961711063  0.2491925674286895  1.0000
  H   H51       1.0  0.48324488334881416  0.5036241692162996  0.11498577432472293  1.0000
  H   H52       1.0  0.5167551168912466  0.4963758307480428  0.8850142256051426  1.0000
  H   H53       1.0  0.38467664429013904  0.9874641342275986  0.7865906362054967  1.0000
  H   H54       1.0  0.6153233559499219  0.012535865736743914  0.2134093637243688  1.0000
  H   H55       1.0  0.6660749138252409  0.8343658908630794  0.10868349118112922  1.0000
  H   H56       1.0  0.33392508641482  0.16563410910126292  0.8913165087487365  1.0000
  H   H57       1.0  0.5557061704868727  0.8032027012420614  0.015526172228717442  1.0000
  H   H58       1.0  0.44429382989232435  0.1967972989723557  0.9844738282570921  1.0000
  H   H59       1.0  0.5348137647754712  0.04574980069727051  0.8934573176788434  1.0000
  H   H60       1.0  0.4651862346906775  0.9542501992737719  0.10654268226164479  1.0000
  H   H61       1.0  0.2576046157464084  0.6658204216188429  0.8221582231977891  1.0000
  H   H62       1.0  0.7423953844936524  0.3341795783454996  0.17784177673207643  1.0000
  H   H63       1.0  0.7924937613780272  0.8526676697190264  0.21848520636571567  1.0000
  H   H64       1.0  0.20750623886203362  0.14733233024531603  0.7815147935641499  1.0000
  H   H65       1.0  0.6209045644867519  0.5350693461036325  0.22472073457388883  1.0000
  H   H66       1.0  0.379095435753309  0.4649306538607099  0.7752792653559768  1.0000
  C   C1        1.0  0.3159375115662552  0.5656707924216049  0.24941597462915793  1.0000
  C   C2        1.0  0.6840624886738056  0.4343292075427375  0.7505840253007076  1.0000
  C   C3        1.0  0.4080092480393766  0.6486099254549356  0.2951910811307487  1.0000
  C   C4        1.0  0.5919907514267719  0.35139007451610677  0.7048089188097395  1.0000
  C   C5        1.0  0.2648991336408141  0.5855657429560663  0.18989363481367133  1.0000
  C   C6        1.0  0.7351008665992468  0.4144342570082763  0.8101063651161943  1.0000
  C   C7        1.0  0.3040427070314287  0.6863430209701246  0.17408845154028288  1.0000
  C   C8        1.0  0.6959572932086321  0.313656978994218  0.8259115483895827  1.0000
  C   C9        1.0  0.396667400276211  0.7665168270448649  0.22075123821793702  1.0000
  C   C10       1.0  0.6033326001029861  0.2334831731695523  0.7792487622678724  1.0000
  C   C11       1.0  0.4494130084820616  0.7514101619537571  0.2819441720335874  1.0000
  C   C12       1.0  0.5505869909840869  0.24858983801728524  0.7180558279069008  1.0000
  C   C13       1.0  0.36139947811643514  0.09510176824692239  0.26812914863690557  1.0000
  C   C14       1.0  0.6386005213497135  0.90489823172412  0.7318708513035826  1.0000
  C   C15       1.0  0.42319054346359336  0.2867134927635432  0.2260943057927562  1.0000
  C   C16       1.0  0.5768094560025552  0.7132865072074992  0.773905694147732  1.0000
  C   C17       1.0  0.33081329171803553  0.19890185259544668  0.18488029624349617  1.0000
  C   C18       1.0  0.6691867085220253  0.8010981473688957  0.8151197036863693  1.0000
  C   C19       1.0  0.30123573265032394  0.1033750143050146  0.2075132339734756  1.0000
  C   C20       1.0  0.6987642669549606  0.8966249859161023  0.7924867665229566  1.0000
  C   C21       1.0  0.4541086585979063  0.18410564322032452  0.30720038318694526  1.0000
  C   C22       1.0  0.5458913408682423  0.8158943567507178  0.692799616753543  1.0000
  C   C23       1.0  0.48635307861997806  0.28228132210940543  0.28726696269969004  1.0000
  C   C24       1.0  0.5136469208461706  0.7177186778616368  0.7127330372407981  1.0000
  C   C25       1.0  0.05826719748765678  0.3134694843948555  0.506878059735061  1.0000
  C   C26       1.0  0.941732802752404  0.686530515569487  0.4931219401948046  1.0000
  C   C27       1.0  0.05359885371060113  0.2389982442459907  0.5477664779922558  1.0000
  C   C28       1.0  0.9464011465294598  0.7610017557183518  0.4522335219376098  1.0000
  C   C29       1.0  0.8989691081764263  0.18701748182561728  0.42134781795865744  1.0000
  C   C30       1.0  0.10103089206363454  0.8129825181387251  0.5786521819712082  1.0000
  C   C31       1.0  0.9817321178985058  0.29071945293674806  0.44417970036660587  1.0000
  C   C32       1.0  0.01826788156764268  0.7092805470342942  0.5558202995738823  1.0000
  C   C33       1.0  0.8927496686570613  0.10959956037786239  0.45989716611847103  1.0000
  C   C34       1.0  0.10725033158299954  0.8904004395864802  0.5401028338113945  1.0000
  C   C35       1.0  0.9690626343985185  0.137050378642588  0.5229664734215855  1.0000
  C   C36       1.0  0.030937365841542355  0.8629496213217543  0.47703352650827996  1.0000
  C   C37       1.0  0.22873928041416933  0.15904201688037747  0.4194610796584031  1.0000
  C   C38       1.0  0.7712607198258915  0.840957983083965  0.5805389202714625  1.0000
  C   C39       1.0  0.25564747874737015  0.3201006238295293  0.3749353204236204  1.0000
  C   C40       1.0  0.7443525214926908  0.6798993761348132  0.6250646795062452  1.0000
  C   C41       1.0  0.10120937394466308  0.1444071284581071  0.31017871080504866  1.0000
  C   C42       1.0  0.8987906255214854  0.8555928715129352  0.6898212891354395  1.0000
  C   C43       1.0  0.19661242586168368  0.20843148627194438  0.3682825387781575  1.0000
  C   C44       1.0  0.8033875743783772  0.7915685136923981  0.631717461151708  1.0000
  C   C45       1.0  0.9340334050442108  0.15943476102316817  0.1426888705367832  1.0000
  C   C46       1.0  0.06596659519585006  0.8405652389411744  0.8573111293930823  1.0000
  C   C47       1.0  0.9708933054614659  0.11812087877050856  0.20260862352601156  1.0000
  C   C48       1.0  0.029106694004682677  0.8818791212005337  0.7973913764144767  1.0000
  C   C49       1.0  0.31834424608448525  0.21987915847355488  0.47529127552687067  1.0000
  C   C50       1.0  0.6816557542947118  0.7801208417408623  0.5247087249589389  1.0000
  C   C51       1.0  0.8575766930136789  0.08316269668447615  0.08149113796963911  1.0000
  C   C52       1.0  0.14242330645246973  0.9168373032865662  0.9185088619708491  1.0000
  C   C53       1.0  0.9718287435384533  0.27163860893359054  0.14451030704390874  1.0000
  C   C54       1.0  0.02817125592769532  0.7283613910374519  0.8554896928965795  1.0000
  C   C55       1.0  0.06673296246871725  0.18422738813814102  0.2548109249326554  1.0000
  C   C56       1.0  0.9332670377713436  0.8157726118262014  0.7451890749972101  1.0000
  C   C57       1.0  0.8238094496135596  0.12088358333469029  0.02512249684046496  1.0000
  C   C58       1.0  0.17619054985258895  0.8791164166363521  0.9748775031000234  1.0000
  C   C59       1.0  0.9324730285161381  0.30236935228290923  0.08594614696432093  1.0000
  C   C60       1.0  0.06752697172392272  0.6976306476814333  0.9140538529655446  1.0000
  C   C61       1.0  0.3451046095641575  0.380546536486015  0.4308899534858716  1.0000
  C   C62       1.0  0.6548953906759034  0.6194534634783274  0.5691100464439939  1.0000
  C   C63       1.0  0.37694351368388396  0.3305282957976193  0.48105378000405025  1.0000
  C   C64       1.0  0.6230564857822646  0.6694717041734229  0.518946219936438  1.0000
  C   C65       1.0  0.984472637126627  0.647764723999191  0.1952870732822606  1.0000
  C   C66       1.0  0.015527362339521667  0.3522352759718512  0.8047129266582276  1.0000
  C   C67       1.0  0.9465089124773991  0.6877746557102271  0.13620107978526264  1.0000
  C   C68       1.0  0.053491087762661794  0.3122253442541154  0.8637989201446029  1.0000
  C   C69       1.0  0.9877326187741482  0.7989361215472105  0.13610254609304465  1.0000
  C   C70       1.0  0.012267381465912618  0.201063878417132  0.8638974538368208  1.0000
  C   C71       1.0  0.07056186734156239  0.7120434103239062  0.2524830014523224  1.0000
  C   C72       1.0  0.9294381328984985  0.28795658964043624  0.747516998477543  1.0000
  C   C73       1.0  0.10045417680244029  0.6658867249469574  0.3077279491153105  1.0000
  C   C74       1.0  0.8995458234376205  0.334113275017385  0.692272050814555  1.0000
  C   C75       1.0  0.19098026888275743  0.7324160477330468  0.3701082358817729  1.0000
  C   C76       1.0  0.8090197305833909  0.26758395223799547  0.6298917640587154  1.0000
  C   C77       1.0  0.24394823211037903  0.8469756394109429  0.3822726026619717  1.0000
  C   C78       1.0  0.7560517681296819  0.15302436055339974  0.6177273972678938  1.0000
  C   C79       1.0  0.3302213624598255  0.9072753452687493  0.4405783684218688  1.0000
  C   C80       1.0  0.6697786377802355  0.09272465469559314  0.5594216315079967  1.0000
  C   C81       1.0  0.8658561040949107  0.611943954983038  0.07718672774586031  1.0000
  C   C82       1.0  0.13414389614515018  0.38805604498130447  0.922813272184005  1.0000
  C   C83       1.0  0.31133796515095247  0.7408061842438286  0.47713030971328313  1.0000
  C   C84       1.0  0.6886620343151961  0.2591938157272136  0.5228696902272051  1.0000
  C   C85       1.0  0.2256083402367722  0.6801900122293827  0.41846967585276923  1.0000
  C   C86       1.0  0.7743916600032887  0.3198099877349598  0.5815303240770963  1.0000
  C   C87       1.0  0.9472039124128525  0.8292843567553879  0.07786232490028827  1.0000
  C   C88       1.0  0.05279608705329602  0.17071564321565433  0.9221376750401999  1.0000
  C   C89       1.0  0.8290803623054126  0.6500813926134567  0.021986915159787058  1.0000
  C   C90       1.0  0.1709196379346483  0.34991860735088587  0.9780130847700783  1.0000
  C   C91       1.0  0.36433673151663815  0.8543828171791352  0.4880271963538612  1.0000
  C   C92       1.0  0.6356632687234226  0.14561718278520716  0.5119728035760043  1.0000
  C   C93       1.0  0.4795427270411647  0.8891015240004292  0.9175070511622802  1.0000
  C   C94       1.0  0.5204572731988962  0.11089847596391332  0.08249294876758548  1.0000
  C   C95       1.0  0.31094049020508957  0.8233000349824369  0.7978381189369855  1.0000
  C   C96       1.0  0.689059509261059  0.17669996498860552  0.2021618810035027  1.0000
  C   C97       1.0  0.48303914310002743  0.6482147017079039  0.0375779207402297  1.0000
  C   C98       1.0  0.5169608571400335  0.35178529825643867  0.9624220791896357  1.0000
  C   C99       1.0  0.550882033441274  0.5818978673867855  0.13642026345220845  1.0000
  C   C100      1.0  0.4491179667987868  0.41810213257755696  0.8635797364776571  1.0000
  C   C101      1.0  0.5630008275144642  0.666291625143028  0.10248076643786444  1.0000
  C   C102      1.0  0.4369991727255967  0.33370837482131444  0.8975192334920011  1.0000
  C   C103      1.0  0.3888530310239093  0.9301474567321943  0.8180357524128085  1.0000
  C   C104      1.0  0.6111469692161516  0.0698525432321481  0.18196424751705703  1.0000
  C   C105      1.0  0.652037262306433  0.7653909111227961  0.13223513910245294  1.0000
  C   C106      1.0  0.3479627379336279  0.2346090888415464  0.8677648608274127  1.0000
  C   C107      1.0  0.48846357302713145  0.7249003321472379  0.9989096535534223  1.0000
  C   C108      1.0  0.5115364272129295  0.27509966781710454  0.0010903463764431207  1.0000
  C   C109      1.0  0.47315622951262937  0.962931815141442  0.8779728173874743  1.0000
  C   C110      1.0  0.5268437707274315  0.03706818482290056  0.12202718254239123  1.0000
  C   C111      1.0  0.4016635529112482  0.781522794894031  0.8975274403500825  1.0000
  C   C112      1.0  0.5983364473288127  0.21847720507031146  0.10247255957978298  1.0000
  C   C113      1.0  0.3172445325457631  0.7495010991105282  0.8372233108362995  1.0000
  C   C114      1.0  0.6827554676942977  0.25049890085381427  0.16277668909356605  1.0000
  C   C115      1.0  0.7234728824258521  0.776014569590245  0.1938983163682427  1.0000
  C   C116      1.0  0.2765271170402964  0.2239854303807973  0.8061016835722455  1.0000
  C   C117      1.0  0.6271264477222738  0.5993301163656611  0.19742200142616684  1.0000
  C   C118      1.0  0.3728735517438749  0.4006698836053812  0.8025779985143213  1.0000
  C   C119      1.0  0.4045316926417277  0.7000608427036571  0.9377350860664819  1.0000
  C   C120      1.0  0.5954683075983332  0.29993915726068543  0.062264913863383696  1.0000
  N   N1        1.0  0.8604001828656523  0.22849149047797018  0.027168715449040953  1.0000
  N   N2        1.0  0.13959981737440863  0.7715085094863723  0.9728312844808247  1.0000
  N   N3        1.0  0.8686750863867158  0.7567418492799473  0.02204055973583242  1.0000
  N   N4        1.0  0.13132491385334513  0.24325815068439519  0.9779594401940331  1.0000
  N   N5        1.0  0.71139502983498  0.6944710575011651  0.22593330573477755  1.0000
  N   N6        1.0  0.28860497040508093  0.3055289424631774  0.774066694195088  1.0000
  O   O1        1.0  0.04560379795531076  0.0428482362091011  0.3121551499767603  1.0000
  O   O2        1.0  0.9543962022847501  0.9571517637552412  0.6878448499531051  1.0000
  O   O3        1.0  0.9140932098357698  0.02093383681203362  0.20437630685353486  1.0000
  O   O4        1.0  0.08590679040429107  0.9790661631523088  0.7956236930763307  1.0000
  O   O5        1.0  0.929651234813678  0.5429712900538478  0.19047011994032892  1.0000
  O   O6        1.0  0.0703487654263829  0.45702870991049466  0.8095298799895366  1.0000
  O   O7        1.0  0.04820983162036338  0.5639308645619256  0.3029078578424393  1.0000
  O   O8        1.0  0.9517901687588337  0.4360691356524915  0.6970921426433702  1.0000
  O   O9        1.0  0.4017333461626718  0.551779772449123  0.017755933645167827  1.0000
  O   O10       1.0  0.5982666540773891  0.44822022751521945  0.9822440662846976  1.0000
  O   O11       1.0  0.3282348110025268  0.6052581240403053  0.9171193925736705  1.0000
  O   O12       1.0  0.6717651884636217  0.39474187593073695  0.08288060736681775  1.0000
  F   F1        1.0  0.27498434828995216  0.4670053954784299  0.2635128541631756  1.0000
  F   F2        1.0  0.7250156519501086  0.5329946044859126  0.7364871457666899  1.0000
  F   F3        1.0  0.4556693235371049  0.6270240519569851  0.35260213090258363  1.0000
  F   F4        1.0  0.544330676702956  0.3729759480073573  0.6473978690272819  1.0000
  F   F5        1.0  0.174214301310663  0.5036365818457437  0.14775877360222786  1.0000
  F   F6        1.0  0.8257856989293978  0.4963634181185988  0.8522412263276377  1.0000
  F   F7        1.0  0.4386322998609498  0.8646975998971843  0.20585087084012094  1.0000
  F   F8        1.0  0.5613676996051988  0.13530240007385813  0.7941491291003674  1.0000
  F   F9        1.0  0.45387989237807413  0.3811918071994855  0.20532577553062345  1.0000
  F   F10       1.0  0.5461201078619867  0.618808192764857  0.7946742243992421  1.0000
  F   F11       1.0  0.21210509715987738  0.014472958978045219  0.17031745269220008  1.0000
  F   F12       1.0  0.7878949032193197  0.9855270412363719  0.8296825477936094  1.0000
  F   F13       1.0  0.3299935766244795  0.0016275449573401573  0.2892513178336934  1.0000
  F   F14       1.0  0.6700064236155815  0.9983724550070023  0.7107486820961721  1.0000
  F   F15       1.0  0.5121595947863796  0.17276095162620828  0.3648125195591715  1.0000
  F   F16       1.0  0.4878404054536813  0.8272390483381342  0.6351874803706942  1.0000
  F   F17       1.0  0.14175964716262715  0.4124244749090955  0.5285764340091202  1.0000
  F   F18       1.0  0.8582403530774337  0.5875755250552471  0.4714235659207454  1.0000
  F   F19       1.0  0.8229283436139141  0.15846078059681512  0.36055506523837916  1.0000
  F   F20       1.0  0.17707165662614674  0.8415392193675274  0.6394449346914863  1.0000
  F   F21       1.0  0.8133109049671807  0.00834853601463598  0.43637421209142746  1.0000
  F   F22       1.0  0.1866890944989678  0.9916514639564062  0.5636257878490608  1.0000
  F   F23       1.0  0.9584586054390292  0.061373304641139236  0.5606691411819406  1.0000
  F   F24       1.0  0.04154139480103163  0.9386266953232031  0.43933085874792493  1.0000
  I   I1        1.0  0.22583264502093106  0.7190090174359459  0.08452772020000818  1.0000
  I   I2        1.0  0.7741673552191297  0.28099098252839644  0.9154722797298572  1.0000
  I   I3        1.0  0.584737108436018  0.8784772580345868  0.34994036791764827  1.0000
  I   I4        1.0  0.41526289180404286  0.12152274192975582  0.6500596320122173  1.0000
  I   I5        1.0  0.6236715335993617  0.41688512670874467  0.34726434297376846  1.0000
  I   I6        1.0  0.37632846664069913  0.5831148732555979  0.652735656956097  1.0000
  I   I7        1.0  0.23844846258998284  0.20952213441068615  0.0914007599690383  1.0000
  I   I8        1.0  0.7615515371204273  0.790477866356242  0.9085992399723763  1.0000
  I   I9        1.0  0.993140170587728  0.405131717743074  0.3846123657427913  1.0000
  I   I10       1.0  0.006859829791468933  0.5948682824713432  0.6153876347430182  1.0000
  I   I11       1.0  0.16462768945149225  0.27409065924719467  0.6456334332668899  1.0000
  I   I12       1.0  0.8353723107885687  0.7259093407171479  0.3543665666629756  1.0000
