data_image0
_chemical_formula_structural       H44C80N4O8F12I12
_chemical_formula_sum              "H44 C80 N4 O8 F12 I12"
_cell_length_a       21.967699857963538
_cell_length_b       9.130338591050412
_cell_length_c       10.356537731663586
_cell_angle_alpha    90.0
_cell_angle_beta     93.52050590697407
_cell_angle_gamma    90.0

_space_group_name_H-M_alt    "P 1"
_space_group_IT_number       1

loop_
  _space_group_symop_operation_xyz
  'x, y, z'

loop_
  _atom_site_type_symbol
  _atom_site_label
  _atom_site_symmetry_multiplicity
  _atom_site_fract_x
  _atom_site_fract_y
  _atom_site_fract_z
  _atom_site_occupancy
  H   H1        1.0  0.3670268997222914  0.44819760726192387  0.35798191138061564  1.0000
  H   H2        1.0  0.6329731003493414  0.9481976066567758  0.1420180889940734  1.0000
  H   H3        1.0  0.6329731001903803  0.5518023926230298  0.6420180893504669  1.0000
  H   H4        1.0  0.3670268995396783  0.051802393228177764  0.8579819107696541  1.0000
  H   H5        1.0  0.4580219524299271  0.8056076504336714  0.565659502470751  1.0000
  H   H6        1.0  0.5419780472764795  0.30560764994356976  0.9343404966820148  1.0000
  H   H7        1.0  0.5419780474590925  0.19439235054653192  0.43434049729297647  1.0000
  H   H8        1.0  0.4580219526125403  0.6943923499413839  0.06565950308171259  1.0000
  H   H9        1.0  0.7099504345291339  0.0036250013808296518  0.476504984352833  1.0000
  H   H10       1.0  0.2900495655424989  0.5036250007756817  0.02349501602185597  1.0000
  H   H11       1.0  0.29004956538353777  0.996374998504124  0.5234950163782496  1.0000
  H   H12       1.0  0.7099504343465208  0.49637499910927196  0.9765049837418714  1.0000
  H   H13       1.0  0.792660349272964  0.9151377549338756  0.3433456645239498  1.0000
  H   H14       1.0  0.20733965079866873  0.4151377555390237  0.15665433585073915  1.0000
  H   H15       1.0  0.20733965061605564  0.08486224495107796  0.6566543352397777  1.0000
  H   H16       1.0  0.7926603491140028  0.5848622454411796  0.8433456648803432  1.0000
  H   H17       1.0  0.2818425787135628  0.4757686713018434  0.5045077818097542  1.0000
  H   H18       1.0  0.7181574214719565  0.975768671791945  0.9954922183196162  1.0000
  H   H19       1.0  0.7181574211754569  0.5242313285831103  0.4954922179539732  1.0000
  H   H20       1.0  0.2818425788725239  0.024231328093008556  0.004507781453360744  1.0000
  H   H21       1.0  0.533598788246397  0.7593607379244364  0.4611972304882671  1.0000
  H   H22       1.0  0.4664012113697752  0.2593607374343348  0.03880276987717249  1.0000
  H   H23       1.0  0.46640121166627474  0.24063926196051724  0.5388027702428153  1.0000
  H   H24       1.0  0.5335987885192446  0.740639262450619  0.961197229886555  1.0000
  H   H25       1.0  0.36864982322882883  0.8195062007157372  0.7003611395025597  1.0000
  H   H26       1.0  0.6313501765012298  0.3195062013208852  0.7996388606175612  1.0000
  H   H27       1.0  0.631350176660191  0.18049379916921648  0.29963886026116765  1.0000
  H   H28       1.0  0.3686498234114419  0.6804937985640686  0.2003611401135213  1.0000
  H   H29       1.0  0.6700951805240615  0.5956596686710949  0.16582661132477136  1.0000
  H   H30       1.0  0.3299048195239193  0.09565966818099327  0.33417338808256264  1.0000
  H   H31       1.0  0.3299048193649582  0.4043403323091084  0.834173388438956  1.0000
  H   H32       1.0  0.6700951808205611  0.9043403317039604  0.6658266116904142  1.0000
  H   H33       1.0  0.7730384531828064  0.7103341771308677  0.18703718457920215  1.0000
  H   H34       1.0  0.22696154688882644  0.21033417773601565  0.31296281579548685  1.0000
  H   H35       1.0  0.22696154670621335  0.289665822754086  0.8129628151845253  1.0000
  H   H36       1.0  0.7730384530238452  0.7896658221489381  0.6870371849355956  1.0000
  H   H37       1.0  0.6080540310831227  0.8900140010103522  0.4556390418973341  1.0000
  H   H38       1.0  0.39194596896485795  0.39001400052025065  0.04436095750999981  1.0000
  H   H39       1.0  0.3919459688058969  0.10998599887460137  0.5443609578663933  1.0000
  H   H40       1.0  0.6080540309241618  0.609985999364703  0.9556390422537276  1.0000
  H   H41       1.0  0.5043830564945534  0.5180258445876386  0.22103860727706032  1.0000
  H   H42       1.0  0.4956169435534275  0.01802584409753696  0.2789613921302736  1.0000
  H   H43       1.0  0.4956169433944664  0.4819741552973151  0.7789613924866671  1.0000
  H   H44       1.0  0.504383056791053  0.9819741557874168  0.7210386076427032  1.0000
  C   C1        1.0  0.8896656899911422  0.422088307193505  0.47326401313579314  1.0000
  C   C2        1.0  0.1103343100804906  0.9220883065883569  0.02673598723889592  1.0000
  C   C3        1.0  0.11033431037699024  0.5779116926914487  0.5267359876045388  1.0000
  C   C4        1.0  0.8896656898085289  0.07791169329659664  0.9732640125248315  1.0000
  C   C5        1.0  0.9069612873599998  0.16110593548434576  0.43661960937110733  1.0000
  C   C6        1.0  0.09303871225617219  0.6611059348791978  0.06338039099433225  1.0000
  C   C7        1.0  0.09303871252901985  0.8388940654958575  0.5633803903926201  1.0000
  C   C8        1.0  0.9069612876328476  0.3388940650057559  0.9366196087693953  1.0000
  C   C9        1.0  0.8642918741914404  0.1293712591510921  0.5272485029081567  1.0000
  C   C10       1.0  0.13570812599407897  0.6293712596411938  0.9727514972212135  1.0000
  C   C11       1.0  0.1357081256975793  0.8706287407338615  0.4727514968555708  1.0000
  C   C12       1.0  0.8642918743504016  0.3706287402437599  0.027248502551763205  1.0000
  C   C13       1.0  0.9186948926391179  0.3083472131865494  0.4119125925129621  1.0000
  C   C14       1.0  0.08130510743251489  0.8083472125814013  0.08808740786172685  1.0000
  C   C15       1.0  0.08130510724990178  0.6916527866984044  0.5880874072507654  1.0000
  C   C16       1.0  0.9186948924801569  0.1916527873035523  0.9119125928693557  1.0000
  C   C17       1.0  0.8466967565236287  0.3828906940457514  0.5608156316519873  1.0000
  C   C18       1.0  0.1533032432064299  0.882890694535853  0.9391843684681336  1.0000
  C   C19       1.0  0.15330324338904303  0.6171093058392022  0.4391843690790952  1.0000
  C   C20       1.0  0.8466967566825897  0.11710930534910063  0.06081563129559384  1.0000
  C   C21       1.0  0.8327615173915037  0.23811919769668438  0.5901077878828545  1.0000
  C   C22       1.0  0.16723848279401557  0.7381191970915365  0.9098922122465158  1.0000
  C   C23       1.0  0.1672384825211679  0.7618808021882693  0.40989221284822797  1.0000
  C   C24       1.0  0.8327615170950042  0.26188080279341724  0.09010778751721162  1.0000
  C   C25       1.0  0.47152722976978056  0.6077919153446826  0.36527907208751714  1.0000
  C   C26       1.0  0.5284727698227395  0.10779191485458088  0.13472092731056745  1.0000
  C   C27       1.0  0.5284727701192391  0.3922080845402711  0.6347209276762102  1.0000
  C   C28       1.0  0.47152723006628017  0.8922080850303727  0.86527907245316  1.0000
  C   C29       1.0  0.3693292988970948  0.5315426938007631  0.433090719616346  1.0000
  C   C30       1.0  0.6306707011745379  0.03154269331066146  0.06690928075834297  1.0000
  C   C31       1.0  0.6306707009919248  0.46845730608419056  0.5669092801473814  1.0000
  C   C32       1.0  0.3693292991699425  0.9684573065742923  0.9330907190146338  1.0000
  C   C33       1.0  0.4202964654713922  0.7295023589299028  0.5480903283895757  1.0000
  C   C34       1.0  0.5797035347141272  0.22950235843980107  0.9519096717397947  1.0000
  C   C35       1.0  0.5797035348967402  0.27049764095505097  0.4519096723507562  1.0000
  C   C36       1.0  0.42029646517489255  0.7704976414451525  0.04809032802393283  1.0000
  C   C37       1.0  0.7011802271669885  0.9139957578550137  0.40822257501797865  1.0000
  C   C38       1.0  0.2988197724491835  0.4139957573649121  0.09177742534746099  1.0000
  C   C39       1.0  0.29881977272203114  0.08600424202993989  0.5917774247457489  1.0000
  C   C40       1.0  0.7011802274634882  0.5860042425200416  0.9082225753836214  1.0000
  C   C41       1.0  0.7477661991761383  0.8645953971233632  0.33316905694799925  1.0000
  C   C42       1.0  0.2522338008954944  0.36459539663326157  0.1668309434266897  1.0000
  C   C43       1.0  0.2522338007128813  0.1354046027615904  0.6668309428157281  1.0000
  C   C44       1.0  0.747766199472638  0.6354046032516921  0.8331690573136421  1.0000
  C   C45       1.0  0.3216940270770469  0.546946937421899  0.5146123626964803  1.0000
  C   C46       1.0  0.6783059731084724  0.04694693693179744  0.9853876374328903  1.0000
  C   C47       1.0  0.6783059728119727  0.4530530624630546  0.4853876370672472  1.0000
  C   C48       1.0  0.3216940272360081  0.9530530629531563  0.01461236234008675  1.0000
  C   C49       1.0  0.4203673111334837  0.6234808022979451  0.4501106600256205  1.0000
  C   C50       1.0  0.579632688938149  0.12348080180784338  0.04988934034906852  1.0000
  C   C51       1.0  0.579632688755536  0.37651919758700864  0.5498893397381069  1.0000
  C   C52       1.0  0.4203673114063313  0.8765191980771102  0.9501106594239083  1.0000
  C   C53       1.0  0.5720222649621838  0.6620262326223982  0.29093804154726427  1.0000
  C   C54       1.0  0.4279777350857971  0.1620262321322966  0.20906195786006967  1.0000
  C   C55       1.0  0.427977734926836  0.3379737672625554  0.7090619582164631  1.0000
  C   C56       1.0  0.5720222648032226  0.8379737677526571  0.7909380419036578  1.0000
  C   C57       1.0  0.5256610184905112  0.6853657821774256  0.38007980985646084  1.0000
  C   C58       1.0  0.474338981125661  0.18536578168732398  0.1199201905089788  1.0000
  C   C59       1.0  0.4743389814221605  0.31463421770752803  0.6199201908746217  1.0000
  C   C60       1.0  0.5256610187633587  0.8146342181976297  0.8800798092547486  1.0000
  C   C61       1.0  0.631979810889142  0.7347769771184556  0.3075709007591296  1.0000
  C   C62       1.0  0.3680201891824908  0.2347769777236035  0.19242909961555935  1.0000
  C   C63       1.0  0.3680201894789904  0.2652230227664981  0.6924290999812022  1.0000
  C   C64       1.0  0.631979810706529  0.7652230232565997  0.8075709001481681  1.0000
  C   C65       1.0  0.3704433293592956  0.7375264742756154  0.6241856289699764  1.0000
  C   C66       1.0  0.6295566703707629  0.23752647378551373  0.8758143711501445  1.0000
  C   C67       1.0  0.6295566705297241  0.2624735267045879  0.375814370793751  1.0000
  C   C68       1.0  0.3704433295419087  0.76247352609944  0.12418562958093801  1.0000
  C   C69       1.0  0.679201954940375  0.6862000239663848  0.23235163312958523  1.0000
  C   C70       1.0  0.3207980451312577  0.1862000245715327  0.26764836724510377  1.0000
  C   C71       1.0  0.3207980449722966  0.31379997591856895  0.7676483676014971  1.0000
  C   C72       1.0  0.679201954757762  0.8137999764086705  0.7323516325186237  1.0000
  C   C73       1.0  0.7367068118862992  0.7501843739632877  0.24505769116999185  1.0000
  C   C74       1.0  0.26329318816168157  0.2501843734731861  0.2549423082373421  1.0000
  C   C75       1.0  0.2632931880027205  0.24981562701691554  0.7549423085937356  1.0000
  C   C76       1.0  0.7367068117273381  0.7498156264117676  0.7450576915263853  1.0000
  C   C77       1.0  0.6436747101092207  0.8493713297337651  0.39633258160395973  1.0000
  C   C78       1.0  0.35632528996241203  0.3493713292436635  0.10366741877072924  1.0000
  C   C79       1.0  0.35632528977979894  0.15062867015118853  0.6036674181597678  1.0000
  C   C80       1.0  0.6436747099502597  0.6506286706412903  0.8963325819603533  1.0000
  N   N1        1.0  0.3222011600615826  0.6475393711899371  0.609002890188566  1.0000
  N   N2        1.0  0.6777988401239367  0.14753937069983544  0.8909971099408043  1.0000
  N   N3        1.0  0.677798839827437  0.3524606297902662  0.39099710957516143  1.0000
  N   N4        1.0  0.32220116022054374  0.8524606291851182  0.1090028898321725  1.0000
  O   O1        1.0  0.5622510796036467  0.5732927237912879  0.1954818252966307  1.0000
  O   O2        1.0  0.437748920444334  0.07329272439643583  0.30451817411070325  1.0000
  O   O3        1.0  0.4377489202853729  0.4267072760936658  0.8045181744670967  1.0000
  O   O4        1.0  0.5622510794446857  0.9267072754885178  0.6954818256530242  1.0000
  O   O5        1.0  0.4628949436288791  0.511064647106715  0.27025169074056066  1.0000
  O   O6        1.0  0.5371050564191017  0.011064647711862958  0.2297483086667733  1.0000
  O   O7        1.0  0.5371050562601406  0.4889353527782387  0.7297483090231668  1.0000
  O   O8        1.0  0.46289494392537883  0.9889353521730907  0.7702516911062035  1.0000
  F   F1        1.0  0.8164133317976476  0.491765752740112  0.618954802443976  1.0000
  F   F2        1.0  0.18358666838787158  0.9917657532302137  0.8810451976853944  1.0000
  F   F3        1.0  0.18358666809137197  0.5082342471448416  0.38104519731975145  1.0000
  F   F4        1.0  0.8164133319802608  0.008234246654739959  0.11895480305493757  1.0000
  F   F5        1.0  0.852399874859304  0.9869594123084198  0.5532882890427322  1.0000
  F   F6        1.0  0.14760012487075452  0.4869594118183181  0.9467117110773887  1.0000
  F   F7        1.0  0.14760012502971565  0.013040587576533896  0.4467117107209952  1.0000
  F   F8        1.0  0.852399875041917  0.5130405880666356  0.053288289653693824  1.0000
  F   F9        1.0  0.9589272565993233  0.3410218787561729  0.32197667786591094  1.0000
  F   F10       1.0  0.04107274347230937  0.8410218792462746  0.17802332250877803  1.0000
  F   F11       1.0  0.04107274374515702  0.6589781211287807  0.6780233219070658  1.0000
  F   F12       1.0  0.9589272564403623  0.15897812063867914  0.8219766782223045  1.0000
  I   I1        1.0  0.7652797487115157  0.18880166521860395  0.7228187864848438  1.0000
  I   I2        1.0  0.23472025099489088  0.6888016657087056  0.7771812126679222  1.0000
  I   I3        1.0  0.23472025117750397  0.8111983346663497  0.27718121327888373  1.0000
  I   I4        1.0  0.7652797488941289  0.3111983341762481  0.2228187870958053  1.0000
  I   I5        1.0  0.9505453973242918  0.0002206971822463571  0.33307933471006573  1.0000
  I   I6        1.0  0.04945460274734105  0.500220697672348  0.16692066566462324  1.0000
  I   I7        1.0  0.04945460304384069  0.9997793027027072  0.6669206660302661  1.0000
  I   I8        1.0  0.9505453971416786  0.4997793033078553  0.8330793340991041  1.0000
  I   I9        1.0  0.9077658855682592  0.6419431351368642  0.4327617477192672  1.0000
  I   I10       1.0  0.09223411450337358  0.1419431357420121  0.06723825265542184  1.0000
  I   I11       1.0  0.09223411432076048  0.35805686474808956  0.5672382520444602  1.0000
  I   I12       1.0  0.9077658858647589  0.8580568641429416  0.9327617480849101  1.0000
