data_image0
_chemical_formula_structural       H6C14O2F4I2
_chemical_formula_sum              "H6 C14 O2 F4 I2"
_cell_length_a       4.290347585184481
_cell_length_b       6.168231096737875
_cell_length_c       13.857259148627254
_cell_angle_alpha    81.74879444722045
_cell_angle_beta     87.46788106134534
_cell_angle_gamma    82.86077795125746

_space_group_name_H-M_alt    "P 1"
_space_group_IT_number       1

loop_
  _space_group_symop_operation_xyz
  'x, y, z'

loop_
  _atom_site_type_symbol
  _atom_site_label
  _atom_site_symmetry_multiplicity
  _atom_site_fract_x
  _atom_site_fract_y
  _atom_site_fract_z
  _atom_site_occupancy
  H   H1        1.0  0.5390914345669781  0.8373607315116018  0.7040686201681781  1.0000
  H   H2        1.0  0.4609085654534525  0.1626392677685978  0.29593138010094394  1.0000
  H   H3        1.0  0.1731781632544953  0.862497366775677  0.34364230079573554  1.0000
  H   H4        1.0  0.8268218367659352  0.13750263250452247  0.6563576994733866  1.0000
  H   H5        1.0  0.8250842093552955  0.6508176654122501  0.4619678215726666  1.0000
  H   H6        1.0  0.17491579038608238  0.3491823355029334  0.5380321786928023  1.0000
  C   C1        1.0  0.9808447830261224  0.9473136805246684  0.9073960999453903  1.0000
  C   C2        1.0  0.019155217069270834  0.052686318977038245  0.09260389959429403  1.0000
  C   C3        1.0  0.12453931934914445  0.13271489493175148  0.9185743418516389  1.0000
  C   C4        1.0  0.8754606803922331  0.867285105983432  0.08142565841383007  1.0000
  C   C5        1.0  0.8565755145671686  0.817672608132983  0.9868852606606469  1.0000
  C   C6        1.0  0.14342448517420917  0.1823273927822005  0.013114739604822111  1.0000
  C   C7        1.0  0.6115517761403692  0.7581158804228265  0.6382048954475495  1.0000
  C   C8        1.0  0.38844822395502415  0.24188411907888  0.36179510409213494  1.0000
  C   C9        1.0  0.8100595404849723  0.8808495139463076  0.5662322499771938  1.0000
  C   C10       1.0  0.18994045953545824  0.11915048533389205  0.4337677502919284  1.0000
  C   C11       1.0  0.09573611036362943  0.9212832704782387  0.41221237969137053  1.0000
  C   C12       1.0  0.9042638894527111  0.07871673065845185  0.5877876198446608  1.0000
  C   C13       1.0  0.9052227073925532  0.8023917635546671  0.4779442530610192  1.0000
  C   C14       1.0  0.09477729234882468  0.19760823736051633  0.5220557472044498  1.0000
  O   O1        1.0  0.527598610158026  0.5780678743099774  0.6289473495194664  1.0000
  O   O2        1.0  0.47240138986240454  0.42193212497022214  0.3710526507496557  1.0000
  F   F1        1.0  0.9583386181906746  0.8897157177403466  0.8172765362149477  1.0000
  F   F2        1.0  0.041661381625665926  0.1102842833963439  0.18272346332108352  1.0000
  F   F3        1.0  0.7145716249745937  0.6433692420148632  0.9704041933723823  1.0000
  F   F4        1.0  0.2854283751207995  0.3566307574868434  0.02959580616730211  1.0000
  I   I1        1.0  0.2916895228454098  0.33185457807407376  0.7968402018560108  1.0000
  I   I2        1.0  0.7083104795070592  0.6681454211963201  0.2031597984164031  1.0000
