data_image0
_chemical_formula_structural       H48C76N12O16I4
_chemical_formula_sum              "H48 C76 N12 O16 I4"
_cell_length_a       6.809144176602773
_cell_length_b       14.958933503091648
_cell_length_c       16.884982279622907
_cell_angle_alpha    90.0
_cell_angle_beta     90.0
_cell_angle_gamma    90.0

_space_group_name_H-M_alt    "P 1"
_space_group_IT_number       1

loop_
  _space_group_symop_operation_xyz
  'x, y, z'

loop_
  _atom_site_type_symbol
  _atom_site_label
  _atom_site_symmetry_multiplicity
  _atom_site_fract_x
  _atom_site_fract_y
  _atom_site_fract_z
  _atom_site_occupancy
  H   H1        1.0  0.40892995474641686  0.22507928719010176  0.12701772939307446  1.0000
  H   H2        1.0  0.09107004403443042  0.27492071270656043  0.6270177294042409  1.0000
  H   H3        1.0  0.5910700442838911  0.22507928719010176  0.372982270618092  1.0000
  H   H4        1.0  0.9089299549958775  0.27492071270656043  0.8729822706292585  1.0000
  H   H5        1.0  0.5910700442838911  0.7749207132717195  0.8729822706292585  1.0000
  H   H6        1.0  0.9089299549958775  0.725079287086764  0.372982270618092  1.0000
  H   H7        1.0  0.40892995474641686  0.7749207132717195  0.6270177294042409  1.0000
  H   H8        1.0  0.09107004403443042  0.725079287086764  0.12701772939307446  1.0000
  H   H9        1.0  0.5000000002494606  0.9764537536704171  0.25000000000558326  1.0000
  H   H10       1.0  0.0  0.5235462460195696  0.7500000000167497  1.0000
  H   H11       1.0  0.5000000002494606  0.023546246122907313  0.7500000000167497  1.0000
  H   H12       1.0  0.0  0.4764537537737549  0.25000000000558326  1.0000
  H   H13       1.0  0.5000000002494606  0.8313831763093043  0.25000000000558326  1.0000
  H   H14       1.0  0.0  0.6686168233806824  0.7500000000167497  1.0000
  H   H15       1.0  0.5000000002494606  0.16861682348402018  0.7500000000167497  1.0000
  H   H16       1.0  0.0  0.33138317641264203  0.25000000000558326  1.0000
  H   H17       1.0  0.397280802086005  0.4947081253132476  0.38376688779946505  1.0000
  H   H18       1.0  0.10271919816345561  0.005291874583414613  0.8837668878106315  1.0000
  H   H19       1.0  0.6027191984129162  0.4947081253132476  0.11623311221170145  1.0000
  H   H20       1.0  0.8972808008668522  0.005291874583414613  0.6162331122228679  1.0000
  H   H21       1.0  0.6027191984129162  0.5052918744800767  0.6162331122228679  1.0000
  H   H22       1.0  0.8972808008668522  0.9947081252099098  0.11623311221170145  1.0000
  H   H23       1.0  0.397280802086005  0.5052918744800767  0.8837668878106315  1.0000
  H   H24       1.0  0.10271919816345561  0.9947081252099098  0.38376688779946505  1.0000
  H   H25       1.0  0.39421749347349644  0.829268902588289  0.39132804942141564  1.0000
  H   H26       1.0  0.1057825067759642  0.6707310977701944  0.891328049432582  1.0000
  H   H27       1.0  0.6057825070254248  0.829268902588289  0.10867195058975089  1.0000
  H   H28       1.0  0.894217493722957  0.6707310977701944  0.6086719506009174  1.0000
  H   H29       1.0  0.6057825070254248  0.17073109720503535  0.6086719506009174  1.0000
  H   H30       1.0  0.894217493722957  0.32926890269162684  0.10867195058975089  1.0000
  H   H31       1.0  0.39421749347349644  0.17073109720503535  0.891328049432582  1.0000
  H   H32       1.0  0.1057825067759642  0.32926890269162684  0.39132804942141564  1.0000
  H   H33       1.0  0.29236105571687526  0.7418519821420729  0.5088307744550311  1.0000
  H   H34       1.0  0.20763894306397204  0.7581480175479137  0.008830774443864563  1.0000
  H   H35       1.0  0.7076389433134327  0.7418519821420729  0.9911692255784683  1.0000
  H   H36       1.0  0.7923610559663359  0.7581480175479137  0.49116922556730197  1.0000
  H   H37       1.0  0.7076389433134327  0.2581480176512515  0.49116922556730197  1.0000
  H   H38       1.0  0.7923610559663359  0.24185198224541068  0.9911692255784683  1.0000
  H   H39       1.0  0.29236105571687526  0.2581480176512515  0.008830774443864563  1.0000
  H   H40       1.0  0.20763894306397204  0.24185198224541068  0.5088307744550311  1.0000
  H   H41       1.0  0.29620941306111254  0.5752491491603685  0.5053890634104106  1.0000
  H   H42       1.0  0.20379058718834805  0.9247508505296181  0.00538906339924404  1.0000
  H   H43       1.0  0.7037905874378086  0.5752491491603685  0.9946109366230889  1.0000
  H   H44       1.0  0.7962094133105732  0.9247508505296181  0.4946109366119225  1.0000
  H   H45       1.0  0.7037905874378086  0.42475085063295587  0.4946109366119225  1.0000
  H   H46       1.0  0.7962094133105732  0.07524914926370628  0.9946109366230889  1.0000
  H   H47       1.0  0.29620941306111254  0.42475085063295587  0.00538906339924404  1.0000
  H   H48       1.0  0.20379058718834805  0.07524914926370628  0.5053890634104106  1.0000
  C   C1        1.0  0.5000000002494606  0.23698802252629284  0.25000000000558326  1.0000
  C   C2        1.0  0.0  0.26301197737036935  0.7500000000167497  1.0000
  C   C3        1.0  0.5000000002494606  0.7630119772670315  0.7500000000167497  1.0000
  C   C4        1.0  0.0  0.736988022422955  0.25000000000558326  1.0000
  C   C5        1.0  0.45020616842474503  0.09737323918840579  0.18273890365426604  1.0000
  C   C6        1.0  0.04979383182471559  0.40262676070825637  0.6827389036654326  1.0000
  C   C7        1.0  0.5497938320741762  0.09737323918840579  0.3172610963569005  1.0000
  C   C8        1.0  0.9502061672055924  0.40262676070825637  0.8172610963680669  1.0000
  C   C9        1.0  0.5497938320741762  0.9026267606049186  0.8172610963680669  1.0000
  C   C10       1.0  0.9502061672055924  0.597373239085068  0.3172610963569005  1.0000
  C   C11       1.0  0.45020616842474503  0.9026267606049186  0.6827389036654326  1.0000
  C   C12       1.0  0.04979383182471559  0.597373239085068  0.18273890365426604  1.0000
  C   C13       1.0  0.4487828882373023  0.19063142365133418  0.1812827665027529  1.0000
  C   C14       1.0  0.05121711201215835  0.309368576245328  0.6812827665139194  1.0000
  C   C15       1.0  0.551217112261619  0.19063142365133418  0.3187172335084136  1.0000
  C   C16       1.0  0.948782888486763  0.309368576245328  0.8187172335195801  1.0000
  C   C17       1.0  0.551217112261619  0.8093685761419902  0.8187172335195801  1.0000
  C   C18       1.0  0.948782888486763  0.6906314235479963  0.3187172335084136  1.0000
  C   C19       1.0  0.4487828882373023  0.8093685761419902  0.6812827665139194  1.0000
  C   C20       1.0  0.05121711201215835  0.6906314235479963  0.1812827665027529  1.0000
  C   C21       1.0  0.5000000002494606  0.048858642887138065  0.25000000000558326  1.0000
  C   C22       1.0  0.0  0.4511413570095241  0.7500000000167497  1.0000
  C   C23       1.0  0.5000000002494606  0.9511413569061863  0.7500000000167497  1.0000
  C   C24       1.0  0.0  0.5488586427838003  0.25000000000558326  1.0000
  C   C25       1.0  0.45078028022185346  0.6154228400104413  0.31620387167615305  1.0000
  C   C26       1.0  0.04921972002760713  0.8845771603480422  0.8162038716873196  1.0000
  C   C27       1.0  0.5492197202770677  0.6154228400104413  0.18379612833501346  1.0000
  C   C28       1.0  0.9507802790027008  0.8845771603480422  0.68379612834618  1.0000
  C   C29       1.0  0.5492197202770677  0.38457716045137996  0.68379612834618  1.0000
  C   C30       1.0  0.9507802790027008  0.1154228394452822  0.18379612833501346  1.0000
  C   C31       1.0  0.45078028022185346  0.38457716045137996  0.8162038716873196  1.0000
  C   C32       1.0  0.04921972002760713  0.1154228394452822  0.31620387167615305  1.0000
  C   C33       1.0  0.4501318786187312  0.7120798576849412  0.31893443243342673  1.0000
  C   C34       1.0  0.049868121630729415  0.7879201420050452  0.8189344324445932  1.0000
  C   C35       1.0  0.5498681204115767  0.7120798576849412  0.18106556757773976  1.0000
  C   C36       1.0  0.9501318788681918  0.7879201420050452  0.6810655675889062  1.0000
  C   C37       1.0  0.5498681204115767  0.2879201421083831  0.6810655675889062  1.0000
  C   C38       1.0  0.9501318788681918  0.2120798577882791  0.18106556757773976  1.0000
  C   C39       1.0  0.4501318786187312  0.2879201421083831  0.8189344324445932  1.0000
  C   C40       1.0  0.049868121630729415  0.2120798577882791  0.31893443243342673  1.0000
  C   C41       1.0  0.5000000002494606  0.7584779234198116  0.25000000000558326  1.0000
  C   C42       1.0  0.0  0.7415220769386719  0.7500000000167497  1.0000
  C   C43       1.0  0.5000000002494606  0.24152207637351278  0.7500000000167497  1.0000
  C   C44       1.0  0.0  0.2584779235231494  0.25000000000558326  1.0000
  C   C45       1.0  0.3960778653016518  0.5675164789151205  0.3857436029329052  1.0000
  C   C46       1.0  0.10392213347919547  0.9324835214433629  0.8857436029440717  1.0000
  C   C47       1.0  0.6039221337286561  0.5675164789151205  0.11425639707826127  1.0000
  C   C48       1.0  0.8960778655511124  0.9324835214433629  0.6142563970894277  1.0000
  C   C49       1.0  0.6039221337286561  0.4324835208782039  0.6142563970894277  1.0000
  C   C50       1.0  0.8960778655511124  0.0675164790184583  0.11425639707826127  1.0000
  C   C51       1.0  0.3960778653016518  0.4324835208782039  0.8857436029440717  1.0000
  C   C52       1.0  0.10392213347919547  0.0675164790184583  0.3857436029329052  1.0000
  C   C53       1.0  0.39399253275005286  0.7563563256472539  0.39003917984254355  1.0000
  C   C54       1.0  0.10600746749940775  0.7436436747112297  0.8900391798537101  1.0000
  C   C55       1.0  0.6060074662802549  0.7563563256472539  0.10996082016862296  1.0000
  C   C56       1.0  0.8939925329995135  0.7436436747112297  0.6099608201797895  1.0000
  C   C57       1.0  0.6060074662802549  0.24364367414607063  0.6099608201797895  1.0000
  C   C58       1.0  0.8939925329995135  0.2563563257505916  0.10996082016862296  1.0000
  C   C59       1.0  0.39399253275005286  0.24364367414607063  0.8900391798537101  1.0000
  C   C60       1.0  0.10600746749940775  0.2563563257505916  0.39003917984254355  1.0000
  C   C61       1.0  0.33950440467150944  0.7074326340051494  0.45531781157259804  1.0000
  C   C62       1.0  0.16049559557795118  0.792567366353334  0.9553178115837645  1.0000
  C   C63       1.0  0.6604955958274118  0.7074326340051494  0.04468218843856846  1.0000
  C   C64       1.0  0.83950440492097  0.792567366353334  0.5446821884497349  1.0000
  C   C65       1.0  0.6604955958274118  0.292567365788175  0.5446821884497349  1.0000
  C   C66       1.0  0.83950440492097  0.20743263410848717  0.04468218843856846  1.0000
  C   C67       1.0  0.33950440467150944  0.292567365788175  0.9553178115837645  1.0000
  C   C68       1.0  0.16049559557795118  0.20743263410848717  0.45531781157259804  1.0000
  C   C69       1.0  0.3418131133127536  0.6125549818178011  0.45320244542009075  1.0000
  C   C70       1.0  0.15818688693670702  0.8874450178721854  0.9532024454312572  1.0000
  C   C71       1.0  0.6581868871861677  0.6125549818178011  0.04679755459107577  1.0000
  C   C72       1.0  0.8418131135622142  0.8874450178721854  0.5467975546022422  1.0000
  C   C73       1.0  0.6581868871861677  0.3874450179755233  0.5467975546022422  1.0000
  C   C74       1.0  0.8418131135622142  0.11255498192113894  0.04679755459107577  1.0000
  C   C75       1.0  0.3418131133127536  0.3874450179755233  0.9532024454312572  1.0000
  C   C76       1.0  0.15818688693670702  0.11255498192113894  0.45320244542009075  1.0000
  N   N1        1.0  0.39482435241095276  0.04818279323529554  0.11077734515939174  1.0000
  N   N2        1.0  0.10517564783850789  0.45181720666136665  0.6107773451705583  1.0000
  N   N3        1.0  0.6051756466193552  0.04818279323529554  0.38922265485177476  1.0000
  N   N4        1.0  0.8948243526604134  0.45181720666136665  0.8892226548629413  1.0000
  N   N5        1.0  0.6051756466193552  0.9518172065580288  0.8892226548629413  1.0000
  N   N6        1.0  0.8948243526604134  0.5481827938004545  0.38922265485177476  1.0000
  N   N7        1.0  0.39482435241095276  0.9518172065580288  0.6107773451705583  1.0000
  N   N8        1.0  0.10517564783850789  0.5481827938004545  0.11077734515939174  1.0000
  N   N9        1.0  0.5000000002494606  0.5699617782402656  0.25000000000558326  1.0000
  N   N10       1.0  0.0  0.9300382221182178  0.7500000000167497  1.0000
  N   N11       1.0  0.5000000002494606  0.4300382222215557  0.7500000000167497  1.0000
  N   N12       1.0  0.0  0.06996177767510652  0.25000000000558326  1.0000
  O   O1        1.0  0.34578792707760225  0.09196848757404168  0.051661682289872154  1.0000
  O   O2        1.0  0.15421207317185837  0.40803151232262047  0.5516616823010386  1.0000
  O   O3        1.0  0.6542120734213189  0.09196848757404168  0.4483383177212943  1.0000
  O   O4        1.0  0.8457879258584496  0.40803151232262047  0.9483383177324607  1.0000
  O   O5        1.0  0.6542120734213189  0.9080315128877795  0.9483383177324607  1.0000
  O   O6        1.0  0.8457879258584496  0.5919684874707039  0.4483383177212943  1.0000
  O   O7        1.0  0.34578792707760225  0.9080315128877795  0.5516616823010386  1.0000
  O   O8        1.0  0.15421207317185837  0.5919684874707039  0.051661682289872154  1.0000
  O   O9        1.0  0.3980789523173769  0.9652016326575646  0.11376701131148008  1.0000
  O   O10       1.0  0.10192104793208373  0.534798367032422  0.6137670113226467  1.0000
  O   O11       1.0  0.6019210481815443  0.9652016326575646  0.3862329886996864  1.0000
  O   O12       1.0  0.8980789510982242  0.534798367032422  0.8862329887108529  1.0000
  O   O13       1.0  0.6019210481815443  0.03479836713575976  0.8862329887108529  1.0000
  O   O14       1.0  0.8980789510982242  0.46520163276090243  0.3862329886996864  1.0000
  O   O15       1.0  0.3980789523173769  0.03479836713575976  0.6137670113226467  1.0000
  O   O16       1.0  0.10192104793208373  0.46520163276090243  0.11376701131148008  1.0000
  I   I1        1.0  0.5000000002494606  0.37816178999865585  0.25000000000558326  1.0000
  I   I2        1.0  0.0  0.12183820989800638  0.7500000000167497  1.0000
  I   I3        1.0  0.5000000002494606  0.6218382097946685  0.7500000000167497  1.0000
  I   I4        1.0  0.0  0.878161789895318  0.25000000000558326  1.0000
