data_image0
_chemical_formula_structural       H96C112N8O16
_chemical_formula_sum              "H96 C112 N8 O16"
_cell_length_a       14.32559588153795
_cell_length_b       6.878007476844657
_cell_length_c       23.10392175318152
_cell_angle_alpha    90.0
_cell_angle_beta     101.65866236145922
_cell_angle_gamma    90.0

_space_group_name_H-M_alt    "P 1"
_space_group_IT_number       1

loop_
  _space_group_symop_operation_xyz
  'x, y, z'

loop_
  _atom_site_type_symbol
  _atom_site_label
  _atom_site_symmetry_multiplicity
  _atom_site_fract_x
  _atom_site_fract_y
  _atom_site_fract_z
  _atom_site_occupancy
  H   H1        1.0  0.7578031408244186  0.8483158472338165  0.3029346331987022  1.0000
  H   H2        1.0  0.7421968598130548  0.3483158470044374  0.1970653668330941  1.0000
  H   H3        1.0  0.2421968596556597  0.15168415322494175  0.6970653668786775  1.0000
  H   H4        1.0  0.25780314066702337  0.6516841520004115  0.8029346332442855  1.0000
  H   H5        1.0  0.6542897118917932  0.14402878352997373  0.27848096611333983  1.0000
  H   H6        1.0  0.8457102880329257  0.6440287837593528  0.2215190338282013  1.0000
  H   H7        1.0  0.34571028858828506  0.8559712154748751  0.7215190339640398  1.0000
  H   H8        1.0  0.1542897117343981  0.35597121669940535  0.7784809661589231  1.0000
  H   H9        1.0  0.41258507220876656  0.7779754104679716  0.28717821992289205  1.0000
  H   H10       1.0  0.08741492767489535  0.27797541023859246  0.21282178007067026  1.0000
  H   H11       1.0  0.5874149275585573  0.22202458999078664  0.7128217800642325  1.0000
  H   H12       1.0  0.9125850720924283  0.7220245887662563  0.7871782199164543  1.0000
  H   H13       1.0  0.526085416599298  0.5008622819323238  0.3116096938102901  1.0000
  H   H14       1.0  0.973914583325421  0.0008622817029447015  0.18839030613125113  1.0000
  H   H15       1.0  0.4739145831695849  0.49913771852643446  0.6883903057442038  1.0000
  H   H16       1.0  0.026085417154657342  0.9991377173019041  0.8116096939461284  1.0000
  H   H17       1.0  0.5099231606486309  0.18274495691252476  0.18613103668075845  1.0000
  H   H18       1.0  0.990076839276088  0.682744957141904  0.31386896326078273  1.0000
  H   H19       1.0  0.4900768398314474  0.8172550435462335  0.8138689633966212  1.0000
  H   H20       1.0  0.009923160491235717  0.3172550433168544  0.6861310367263418  1.0000
  H   H21       1.0  0.3966497790324555  0.44594174262327196  0.14515110733198164  1.0000
  H   H22       1.0  0.1033502208512064  0.9459417428526511  0.3548488926615806  1.0000
  H   H23       1.0  0.6033502207348683  0.5540582578354863  0.8548488926551429  1.0000
  H   H24       1.0  0.8966497789161174  0.05405825760610722  0.6451511073255439  1.0000
  H   H25       1.0  0.28134372619457604  0.5675791896334064  0.20370407298954138  1.0000
  H   H26       1.0  0.21865627368908588  0.06757918940402716  0.29629592700402085  1.0000
  H   H27       1.0  0.7186562735727478  0.432420810825352  0.7962959269975831  1.0000
  H   H28       1.0  0.7813437260782379  0.9324208110547312  0.7037040729831037  1.0000
  H   H29       1.0  0.21624114797064933  0.5692871072301154  0.28926922666843596  1.0000
  H   H30       1.0  0.28375885191301253  0.06928710700073629  0.21073077332512632  1.0000
  H   H31       1.0  0.7837588517966744  0.43071289322864287  0.7107307733186886  1.0000
  H   H32       1.0  0.7162411485670658  0.930712893458022  0.7892692267522533  1.0000
  H   H33       1.0  0.20331962381191548  0.4361737232911933  0.3865818504999406  1.0000
  H   H34       1.0  0.2966803760717464  0.9361737235205724  0.11341814949362172  1.0000
  H   H35       1.0  0.7966803759554083  0.5638262757136555  0.613418149487184  1.0000
  H   H36       1.0  0.7033196236955774  0.06382627548427641  0.8865818504935029  1.0000
  H   H37       1.0  0.3177525826766124  0.18279884025028612  0.4337195483378879  1.0000
  H   H38       1.0  0.1822474172070495  0.6827988404796653  0.06628045165567438  1.0000
  H   H39       1.0  0.682247417803466  0.8172011602084721  0.5662804517394917  1.0000
  H   H40       1.0  0.8177525825602744  0.317201159979093  0.9337195483314502  1.0000
  H   H41       1.0  0.3437500925487753  0.8158783454208131  0.40358922916937745  1.0000
  H   H42       1.0  0.15624990733488658  0.3158783451914339  0.09641077082418474  1.0000
  H   H43       1.0  0.6562499072185484  0.18412165503794523  0.5964107708177471  1.0000
  H   H44       1.0  0.8437500924324373  0.6841216552673244  0.9035892291629397  1.0000
  H   H45       1.0  0.45547987043044  0.5654408654094921  0.45527090956340155  1.0000
  H   H46       1.0  0.044520129453221875  0.06544086663402238  0.04472909043016075  1.0000
  H   H47       1.0  0.5445201293368838  0.43455913359535675  0.544729090423723  1.0000
  H   H48       1.0  0.955479870314102  0.9345591338247359  0.9552709095569638  1.0000
  H   H49       1.0  0.6901921837894592  0.9146890245728778  0.4539364198709942  1.0000
  H   H50       1.0  0.8098078161352598  0.4146890243434987  0.04606358007054706  1.0000
  H   H51       1.0  0.3098078159778645  0.08531097588588045  0.5460635801161304  1.0000
  H   H52       1.0  0.19019218434481858  0.5853109761152596  0.9539364200068324  1.0000
  H   H53       1.0  0.5880726668029358  0.18345968570811705  0.40153528920169934  1.0000
  H   H54       1.0  0.9119273331217833  0.6834596859374962  0.09846471073984188  1.0000
  H   H55       1.0  0.4119273336771425  0.8165403147506411  0.5984647108756803  1.0000
  H   H56       1.0  0.08807266664554056  0.31654031452126213  0.9015352892472827  1.0000
  H   H57       1.0  0.7827606911669692  0.0023925446512525887  0.1708233729449423  1.0000
  H   H58       1.0  0.7172393087577499  0.5023925448806318  0.32917662699659894  1.0000
  H   H59       1.0  0.21723930931310917  0.9976074543535962  0.8291766271324373  1.0000
  H   H60       1.0  0.28276069100957396  0.4976074541242171  0.6708233729905255  1.0000
  H   H61       1.0  0.43710129903488576  0.7447760775552434  0.06681126824715532  1.0000
  H   H62       1.0  0.06289870084877616  0.24477607877977364  0.43318873174640693  1.0000
  H   H63       1.0  0.562898700732438  0.2552239214496055  0.9331887317399692  1.0000
  H   H64       1.0  0.9371012996313022  0.7552239216789847  0.5668112683309727  1.0000
  H   H65       1.0  0.5064639061342657  0.17184709292323078  0.0744064206917555  1.0000
  H   H66       1.0  0.9935360937904533  0.6718470931526099  0.42559357924978575  1.0000
  H   H67       1.0  0.4935360936330581  0.8281529075355275  0.925593579295369  1.0000
  H   H68       1.0  0.006463905976870494  0.3281529073061483  0.5744064207373388  1.0000
  H   H69       1.0  0.53761215169957  0.5096343834752665  0.11527792652987907  1.0000
  H   H70       1.0  0.9623878482251489  0.009634384699796777  0.3847220734116621  1.0000
  H   H71       1.0  0.46238784806775374  0.49036561552958235  0.8847220734572455  1.0000
  H   H72       1.0  0.037612151542174885  0.9903656157589615  0.6152779265754624  1.0000
  H   H73       1.0  0.6094961506633029  0.5896627669646832  0.1831707127476459  1.0000
  H   H74       1.0  0.8905038492614162  0.08966276673530409  0.3168292871938953  1.0000
  H   H75       1.0  0.39050384981677555  0.410337233494075  0.8168292873297338  1.0000
  H   H76       1.0  0.1094961505059076  0.9103372337234542  0.6831707127932292  1.0000
  H   H77       1.0  0.6603071862001179  0.5606870511529539  0.12071395255055141  1.0000
  H   H78       1.0  0.8396928144373556  0.06068705092357481  0.3792860474812449  1.0000
  H   H79       1.0  0.3396928142799604  0.43931294930580433  0.8792860475268283  1.0000
  H   H80       1.0  0.16030718604272273  0.9393129480812741  0.6207139525961348  1.0000
  H   H81       1.0  0.29087416037135305  0.3689945596227099  0.035584877503154796  1.0000
  H   H82       1.0  0.2091258395123088  0.8689945583981795  0.4644151224904075  1.0000
  H   H83       1.0  0.7091258401087253  0.6310054408360485  0.9644151225742248  1.0000
  H   H84       1.0  0.790874160255015  0.13100544060666927  0.535584877496717  1.0000
  H   H85       1.0  0.31475244381738693  0.3293180034516495  0.9651638516025011  1.0000
  H   H86       1.0  0.18524755650685526  0.8293180022271193  0.5348361480878313  1.0000
  H   H87       1.0  0.6852475559499368  0.6706819970071087  0.03483614838462345  1.0000
  H   H88       1.0  0.814752443973223  0.17068199677772963  0.4651638519895483  1.0000
  H   H89       1.0  0.40845937186669845  0.4061348798186383  0.023587127646033216  1.0000
  H   H90       1.0  0.09154062801696342  0.9061348800480173  0.47641287234752905  1.0000
  H   H91       1.0  0.5915406279006252  0.5938651191862107  0.9764128723410913  1.0000
  H   H92       1.0  0.9084593717503604  0.09386512041074091  0.5235871276395955  1.0000
  H   H93       1.0  0.15477451426693659  0.9329507087049256  0.9773528211157856  1.0000
  H   H94       1.0  0.345225485342992  0.43295070847554645  0.5226471789169224  1.0000
  H   H95       1.0  0.8452254855003872  0.06704929175383267  0.022647178871338984  1.0000
  H   H96       1.0  0.6547745144243318  0.5670492905293024  0.4773528210702022  1.0000
  C   C1        1.0  0.6806629387904043  0.8414912777406857  0.29822768647117714  1.0000
  C   C2        1.0  0.8193370618470692  0.34149127896521597  0.2017723135606192  1.0000
  C   C3        1.0  0.31933706168967396  0.15850872126416315  0.7017723136062024  1.0000
  C   C4        1.0  0.18066293863300914  0.6585087214935423  0.7982276865167603  1.0000
  C   C5        1.0  0.6226493941682598  0.0038228207934519884  0.2848131822028707  1.0000
  C   C6        1.0  0.8773506057564592  0.5038228195689216  0.21518681773867046  1.0000
  C   C7        1.0  0.3773506055990639  0.9961771796653063  0.7151868177842537  1.0000
  C   C8        1.0  0.12264939401086467  0.4961771794359271  0.7848131822484541  1.0000
  C   C9        1.0  0.5243729241958743  0.9859243455069533  0.28207966489443426  1.0000
  C   C10       1.0  0.9756270757272855  0.4859243452775742  0.21792033547973746  1.0000
  C   C11       1.0  0.47562707628420386  0.014075653497895513  0.7179203351829453  1.0000
  C   C12       1.0  0.024372924040038307  0.5140756537272746  0.7820796645073871  1.0000
  C   C13       1.0  0.4886321523134849  0.8007425200599836  0.29052042847333986  1.0000
  C   C14       1.0  0.01136784757017699  0.30074251983060446  0.20947957152022237  1.0000
  C   C15       1.0  0.5113678474538389  0.1992574803987747  0.7094795715137846  1.0000
  C   C16       1.0  0.9886321529099013  0.6992574791742444  0.7905204285571572  1.0000
  C   C17       1.0  0.5515645934709634  0.6460288804510638  0.3038563045030159  1.0000
  C   C18       1.0  0.9484354064537555  0.14602888022168464  0.19614369543852536  1.0000
  C   C19       1.0  0.4484354062963603  0.3539711200076945  0.6961436954841087  1.0000
  C   C20       1.0  0.051564593313568254  0.8539711202370736  0.803856304548599  1.0000
  C   C21       1.0  0.46032227431739287  0.1558651824106199  0.2672919694117157  1.0000
  C   C22       1.0  0.03967772556626905  0.6558651811860896  0.23270803058184655  1.0000
  C   C23       1.0  0.539677725449931  0.8441348180481383  0.7327080305754089  1.0000
  C   C24       1.0  0.9603222742010546  0.34413481781875926  0.7672919694052779  1.0000
  C   C25       1.0  0.46033957920062946  0.23858739548111468  0.21231599325417183  1.0000
  C   C26       1.0  0.03966042068303245  0.7385873957104938  0.2876840067393904  1.0000
  C   C27       1.0  0.5396604205666944  0.7614126035237342  0.7876840067329527  1.0000
  C   C28       1.0  0.9603395797970459  0.261412603294355  0.7123159933379893  1.0000
  C   C29       1.0  0.3962984932739178  0.3871614604905354  0.18886870956817553  1.0000
  C   C30       1.0  0.10370150660974407  0.8871614607199145  0.31113129042538673  1.0000
  C   C31       1.0  0.603701506493406  0.6128385385143135  0.8111312904189489  1.0000
  C   C32       1.0  0.8962984931575797  0.11283853828493427  0.6888687095617377  1.0000
  C   C33       1.0  0.332553757389098  0.4549819872303518  0.22119827413845414  1.0000
  C   C34       1.0  0.16744624249456388  0.9549819874597308  0.27880172585510815  1.0000
  C   C35       1.0  0.6674462423782258  0.5450180132284065  0.7788017258486705  1.0000
  C   C36       1.0  0.8325537572727599  0.045018012999027336  0.7211982741320163  1.0000
  C   C37       1.0  0.33194028649299845  0.38106453923228206  0.2783862177476157  1.0000
  C   C38       1.0  0.16805971339066347  0.8810645394616612  0.2216137822459466  1.0000
  C   C39       1.0  0.6680597132743253  0.6189354612264762  0.7216137822395088  1.0000
  C   C40       1.0  0.8319402863766603  0.1189354609970971  0.778386217741178  1.0000
  C   C41       1.0  0.26428977078761234  0.4552299689322825  0.3097249057846475  1.0000
  C   C42       1.0  0.23571022909604955  0.9552299691616616  0.1902750942089147  1.0000
  C   C43       1.0  0.7357102296924659  0.5447700300725663  0.6902750942927321  1.0000
  C   C44       1.0  0.7642897706712741  0.04477003129709664  0.8097249057782098  1.0000
  C   C45       1.0  0.2577748221320989  0.38231768122565973  0.3640477997993466  1.0000
  C   C46       1.0  0.242225177751563  0.8823176814550389  0.13595220019421567  1.0000
  C   C47       1.0  0.7422251776352249  0.6176823192330985  0.635952200187778  1.0000
  C   C48       1.0  0.7577748220157609  0.1176823190037194  0.8640477997929088  1.0000
  C   C49       1.0  0.32186807817508445  0.23709202926718925  0.3899928506654106  1.0000
  C   C50       1.0  0.17813192170857745  0.7370920294965684  0.11000714932815164  1.0000
  C   C51       1.0  0.6781319215922392  0.762907971191569  0.6100071493217138  1.0000
  C   C52       1.0  0.8218680780587464  0.2629079709621899  0.8899928506589729  1.0000
  C   C53       1.0  0.3918622788092541  0.16384816878928388  0.362122628762031  1.0000
  C   C54       1.0  0.10813772107440778  0.6638481675647535  0.1378773712315312  1.0000
  C   C55       1.0  0.6081377209580697  0.8361518316694744  0.6378773712250935  1.0000
  C   C56       1.0  0.891862278692916  0.3361518314400952  0.8621226287555933  1.0000
  C   C57       1.0  0.3974182627541858  0.22922579617829755  0.3036444961863196  1.0000
  C   C58       1.0  0.10258173712947609  0.7292257964076767  0.1963555038072427  1.0000
  C   C59       1.0  0.6025817370131379  0.7707742042804607  0.6963555038008049  1.0000
  C   C60       1.0  0.8974182626378476  0.2707742040510816  0.8036444961798819  1.0000
  C   C61       1.0  0.4569771233035782  0.018512178189491045  0.3962102803364207  1.0000
  C   C62       1.0  0.04302287658008373  0.5185121769649608  0.10378971965714157  1.0000
  C   C63       1.0  0.5430228764637456  0.9814878222692672  0.6037897196507038  1.0000
  C   C64       1.0  0.95697712318724  0.4814878220398881  0.896210280329983  1.0000
  C   C65       1.0  0.42005762702469646  0.8449012783955206  0.4142566028870176  1.0000
  C   C66       1.0  0.07994237357171995  0.3449012781661415  0.08574339719679981  1.0000
  C   C67       1.0  0.5799423734553818  0.15509872206323766  0.5857433971903621  1.0000
  C   C68       1.0  0.9200576269083582  0.6550987222926168  0.9142566028805799  1.0000
  C   C69       1.0  0.4823774542912745  0.7047039068098807  0.4430232991611042  1.0000
  C   C70       1.0  0.017622545593946576  0.20470390658050158  0.05697670039982744  1.0000
  C   C71       1.0  0.5176225454776084  0.29529609219496816  0.5569767003933896  1.0000
  C   C72       1.0  0.9823774541749362  0.7952960924243472  0.9430232991546664  1.0000
  C   C73       1.0  0.6128238546207081  0.9012245495324284  0.4415181322200686  1.0000
  C   C74       1.0  0.8871761453040108  0.4012245493030492  0.058481867721472645  1.0000
  C   C75       1.0  0.3871761458593701  0.09877544947242052  0.5584818678573111  1.0000
  C   C76       1.0  0.112823854463313  0.5987754497017997  0.941518132265652  1.0000
  C   C77       1.0  0.5555964965267535  0.0485239527760894  0.41235589001152084  1.0000
  C   C78       1.0  0.9444035033979655  0.5485239530054685  0.08764410993002034  1.0000
  C   C79       1.0  0.4444035039533249  0.9514760476826688  0.5876441100658587  1.0000
  C   C80       1.0  0.05559649636935823  0.4514760474532897  0.9123558900571042  1.0000
  C   C81       1.0  0.6461116754752444  0.9627246033523834  0.14097913846891486  1.0000
  C   C82       1.0  0.853888325162229  0.4627246031230043  0.3590208615628815  1.0000
  C   C83       1.0  0.35388832500483386  0.037275397106374855  0.8590208616084647  1.0000
  C   C84       1.0  0.14611167531784927  0.537275397335754  0.6409791385144982  1.0000
  C   C85       1.0  0.5714256137910193  0.8153728211084732  0.11797975906745284  1.0000
  C   C86       1.0  0.9285743861321406  0.31537282087909413  0.38202024130671897  1.0000
  C   C87       1.0  0.42857438597630454  0.18462717789637562  0.8820202409196717  1.0000
  C   C88       1.0  0.07142561363518318  0.6846271781257548  0.6179797586804056  1.0000
  C   C89       1.0  0.4864725744481307  0.8632599978975134  0.08236924358576664  1.0000
  C   C90       1.0  0.013527425435531176  0.3632599976681342  0.4176307564077956  1.0000
  C   C91       1.0  0.5135274260319476  0.1367400025612449  0.9176307564916131  1.0000
  C   C92       1.0  0.9864725743317927  0.636740002790624  0.5823692435793288  1.0000
  C   C93       1.0  0.4554395756221723  0.05433683683220585  0.06115421548300541  1.0000
  C   C94       1.0  0.04456042426148959  0.554336837061585  0.43884578451055684  1.0000
  C   C95       1.0  0.5445604241451515  0.9456631636265524  0.938845784504119  1.0000
  C   C96       1.0  0.9554395755058341  0.4456631633971733  0.5611542154765676  1.0000
  C   C97       1.0  0.3688135325584116  0.10457873772623198  0.027918190581510585  1.0000
  C   C98       1.0  0.13118646732525024  0.604578737955611  0.47208180941205163  1.0000
  C   C99       1.0  0.6311864679216667  0.8954212627325263  0.972081809495869  1.0000
  C   C100      1.0  0.8688135324420735  0.39542126250314713  0.5279181905750728  1.0000
  C   C101      1.0  0.2920528640531981  0.959972784593285  0.006585957639946962  1.0000
  C   C102      1.0  0.20794713654321834  0.45997278436390593  0.4934140424438704  1.0000
  C   C103      1.0  0.7079471364268801  0.040027214411563795  0.9934140424374326  1.0000
  C   C104      1.0  0.7920528639368599  0.5400272146409429  0.5065859576335092  1.0000
  C   C105      1.0  0.5953021921950196  0.6082229067187859  0.13489181968294747  1.0000
  C   C106      1.0  0.9046978077281402  0.10822290648940677  0.3651081806912243  1.0000
  C   C107      1.0  0.40469780828505875  0.3917770937399724  0.8651081803944322  1.0000
  C   C108      1.0  0.0953021920391835  0.891777092515442  0.6348918192959002  1.0000
  C   C109      1.0  0.3453130969127321  0.3130065280166928  0.01244930256685233  1.0000
  C   C110      1.0  0.1546869029709298  0.813006528246072  0.4875506974267099  1.0000
  C   C111      1.0  0.6546869028545915  0.6869934724420654  0.9875506974202721  1.0000
  C   C112      1.0  0.8453130967963941  0.18699347221268628  0.5124493025604145  1.0000
  N   N1        1.0  0.6460175290550005  0.6656975694508119  0.30821055654806323  1.0000
  N   N2        1.0  0.8539824708697183  0.1656975692214328  0.19178944339347795  1.0000
  N   N3        1.0  0.3539824707123232  0.3343024310079464  0.6917894434390612  1.0000
  N   N4        1.0  0.14601752961035988  0.8343024297834161  0.8082105566839017  1.0000
  N   N5        1.0  0.5773069804352925  0.7303239298460928  0.45557583474288155  1.0000
  N   N6        1.0  0.9226930194894265  0.2303239296167138  0.04442416519865962  1.0000
  N   N7        1.0  0.42269301933203135  0.26967607061266535  0.5444241652442429  1.0000
  N   N8        1.0  0.07730698027789724  0.7696760708420445  0.9555758347884649  1.0000
  O   O1        1.0  0.7335913289621174  0.8876879707611134  0.15560443650014577  1.0000
  O   O2        1.0  0.7664086709626015  0.38768797053173437  0.34439556344139544  1.0000
  O   O3        1.0  0.26640867151796094  0.11231202969764478  0.8443955635772339  1.0000
  O   O4        1.0  0.2335913288047222  0.6123120299270239  0.6556044365457291  1.0000
  O   O5        1.0  0.6295384686007489  0.13777170542343128  0.14703991092609878  1.0000
  O   O6        1.0  0.8704615313239702  0.6377717056528105  0.3529600890154424  1.0000
  O   O7        1.0  0.37046153116657493  0.8622282950353269  0.8529600890610256  1.0000
  O   O8        1.0  0.12953846844335365  0.36222829480594787  0.647039910971682  1.0000
  O   O9        1.0  0.20585824468570277  0.04229075077037309  0.9901994916475406  1.0000
  O   O10       1.0  0.29414175563698036  0.5422907509997522  0.5098005084754225  1.0000
  O   O11       1.0  0.794141755081621  0.9577092482344757  0.009800508339584013  1.0000
  O   O12       1.0  0.7058582448430979  0.4577092480050966  0.4901994916019572  1.0000
  O   O13       1.0  0.3045758645744311  0.7821546644302233  0.004355216196458726  1.0000
  O   O14       1.0  0.19542413530923078  0.2821546642008442  0.4956447837971035  1.0000
  O   O15       1.0  0.6954241351928926  0.21784533602853492  0.9956447837906658  1.0000
  O   O16       1.0  0.8045758644580931  0.717845336257914  0.504355216190021  1.0000
