data_image0
_chemical_formula_structural       H54C56N4O4I2
_chemical_formula_sum              "H54 C56 N4 O4 I2"
_cell_length_a       10.810237331826366
_cell_length_b       10.793282709751578
_cell_length_c       12.538997109434527
_cell_angle_alpha    97.14356965659925
_cell_angle_beta     113.60111419062481
_cell_angle_gamma    112.31927726478412

_space_group_name_H-M_alt    "P 1"
_space_group_IT_number       1

loop_
  _space_group_symop_operation_xyz
  'x, y, z'

loop_
  _atom_site_type_symbol
  _atom_site_label
  _atom_site_symmetry_multiplicity
  _atom_site_fract_x
  _atom_site_fract_y
  _atom_site_fract_z
  _atom_site_occupancy
  H   H1        1.0  0.9759989890716074  0.10673707765460536  0.012174001188916156  1.0000
  H   H2        1.0  0.024001010852458482  0.8932629223093204  0.9878259982684089  1.0000
  H   H3        1.0  0.11938157230759433  0.49873574692018996  0.9546431772701517  1.0000
  H   H4        1.0  0.8806184281788247  0.5012642533848316  0.04535682310777036  1.0000
  H   H5        1.0  0.29628429246836024  0.4509171339222508  0.8941511043836747  1.0000
  H   H6        1.0  0.7037157074557057  0.5490828660416748  0.1058488950736502  1.0000
  H   H7        1.0  0.366518276611709  0.5757226603130092  0.11940702058843934  1.0000
  H   H8        1.0  0.6334817234925022  0.4242773389889918  0.880592979785499  1.0000
  H   H9        1.0  0.5316900263701777  0.49938858977617506  0.25716954242778495  1.0000
  H   H10       1.0  0.4683099726321834  0.5006114101898227  0.7428304570350139  1.0000
  H   H11       1.0  0.4118943432639316  0.22277043111671982  0.1547845603633788  1.0000
  H   H12       1.0  0.5881056557384295  0.7772295688492781  0.8452154390994202  1.0000
  H   H13       1.0  0.585706508860665  0.32775231814525985  0.16212348394593049  1.0000
  H   H14       1.0  0.41429349162575396  0.6722476821597617  0.8378765164319915  1.0000
  H   H15       1.0  0.3760046203176288  0.1399334390268287  0.9483487690562059  1.0000
  H   H16       1.0  0.6239953796064373  0.8600665609370971  0.0516512304011191  1.0000
  H   H17       1.0  0.4654544794861655  0.31498130521387413  0.9481817434023322  1.0000
  H   H18       1.0  0.5345455210002535  0.6850186950911474  0.0518182569755897  1.0000
  H   H19       1.0  0.1899477697185884  0.20344125151629294  0.8151975879082842  1.0000
  H   H20       1.0  0.8100522302054776  0.7965587484476326  0.18480241154904073  1.0000
  H   H21       1.0  0.9240361130301854  0.2143254646227233  0.749311653920768  1.0000
  H   H22       1.0  0.07596388689388048  0.7856745353412022  0.2506883455365569  1.0000
  H   H23       1.0  0.09603108962702385  0.5944893713867098  0.7544290677977182  1.0000
  H   H24       1.0  0.903968910859395  0.40551062891831174  0.24557093258020354  1.0000
  H   H25       1.0  0.21391263221252105  0.6671626621039344  0.6231963987950062  1.0000
  H   H26       1.0  0.786087367711545  0.3328373378599913  0.3768036006623187  1.0000
  H   H27       1.0  0.23595146118698004  0.4927061265013096  0.4932666134668161  1.0000
  H   H28       1.0  0.764048538377734  0.5072938738057842  0.5067333869165798  1.0000
  H   H29       1.0  0.13616023566606708  0.24243030793951198  0.4915924165594225  1.0000
  H   H30       1.0  0.8638397642579988  0.7575696920244137  0.5084075828979024  1.0000
  H   H31       1.0  0.014839477455356288  0.16886619709258674  0.6208567377389025  1.0000
  H   H32       1.0  0.9851605220865018  0.8311338018683182  0.37914326171443874  1.0000
  H   H33       1.0  0.9054622847740482  0.47244671734558724  0.8261810263358065  1.0000
  H   H34       1.0  0.09453771571237085  0.5275532829594344  0.17381897404211544  1.0000
  H   H35       1.0  0.7357023758624783  0.15009414461804335  0.5615487973207043  1.0000
  H   H36       1.0  0.2642976240615877  0.8499058553458823  0.4384512021366207  1.0000
  H   H37       1.0  0.48634844757387485  0.06367001150207277  0.3809596169471294  1.0000
  H   H38       1.0  0.5136515529125442  0.9363299888029489  0.6190403834307926  1.0000
  H   H39       1.0  0.438213275223843  0.41170529354206725  0.5371334836749174  1.0000
  H   H40       1.0  0.5617867243180151  0.5882947054188377  0.4628665157784238  1.0000
  H   H41       1.0  0.6913282921008134  0.5013342728938248  0.7183680342941077  1.0000
  H   H42       1.0  0.30867170782325265  0.49866572707010093  0.2816319651632173  1.0000
  H   H43       1.0  0.3612095303665943  0.8471309627989833  0.881369317671182  1.0000
  H   H44       1.0  0.6387904701198246  0.1528690375060382  0.11863068270673982  1.0000
  H   H45       1.0  0.12696885825795381  0.8420475347338457  0.7243446420094575  1.0000
  H   H46       1.0  0.8730311413067602  0.15795246557324794  0.27565535837393845  1.0000
  H   H47       1.0  0.1498956629339728  0.01269943661101722  0.6080375771431716  1.0000
  H   H48       1.0  0.8501043375524462  0.9873005636940043  0.3919624232347503  1.0000
  H   H49       1.0  0.40744559304302036  0.19003984226396395  0.6511801910608902  1.0000
  H   H50       1.0  0.5925544064988378  0.8099601566969411  0.34881980839245097  1.0000
  H   H51       1.0  0.6417361872106425  0.19416766441882516  0.8077312633282108  1.0000
  H   H52       1.0  0.3582638128935686  0.8058323348831757  0.1922687370457274  1.0000
  H   H53       1.0  0.6188603636776078  0.021409071264219506  0.9217401922008615  1.0000
  H   H54       1.0  0.381139636808811  0.9785909290408019  0.07825980817706042  1.0000
  C   C1        1.0  0.1257459977677886  0.13934375798883505  0.9438067731801015  1.0000
  C   C2        1.0  0.8742540027186304  0.8606562423161865  0.0561932271978204  1.0000
  C   C3        1.0  0.03141919392251934  0.30405283161118224  0.9859703096043109  1.0000
  C   C4        1.0  0.9685808060015464  0.6959471683527433  0.014029689853013987  1.0000
  C   C5        1.0  0.09909388503747538  0.39057526130586845  0.918764196606667  1.0000
  C   C6        1.0  0.900906114145031  0.6094247379982047  0.08123580377274524  1.0000
  C   C7        1.0  0.25353052454003344  0.39453402965480944  0.9495704547515149  1.0000
  C   C8        1.0  0.7464694759463856  0.605465970650212  0.05042954562640709  1.0000
  C   C9        1.0  0.36477968025153257  0.47681530483445317  0.08422737905969141  1.0000
  C   C10       1.0  0.6352203193131815  0.5231846954726406  0.9157726213237045  1.0000
  C   C11       1.0  0.45636328281350047  0.43464615506125426  0.1603408631908827  1.0000
  C   C12       1.0  0.5436367161888606  0.5653538449047435  0.8396591362719162  1.0000
  C   C13       1.0  0.4650340448919157  0.30367217842073063  0.11888087604326941  1.0000
  C   C14       1.0  0.5349659552122955  0.6963278208812704  0.8811191243306689  1.0000
  C   C15       1.0  0.3917477414026161  0.2468213662355263  0.9792472430455359  1.0000
  C   C16       1.0  0.6082522581620979  0.7531786340715675  0.020752757337860077  1.0000
  C   C17       1.0  0.236670642240802  0.2453916340438866  0.9154148362409432  1.0000
  C   C18       1.0  0.7633293567615591  0.7546083659221113  0.08458516322185573  1.0000
  C   C19       1.0  0.979292800272785  0.3312242405000012  0.7786342314785789  1.0000
  C   C20       1.0  0.020707200213633845  0.6687757598050205  0.22136576889934306  1.0000
  C   C21       1.0  0.05161621694485985  0.37755203533391596  0.6988402309621131  1.0000
  C   C22       1.0  0.9483837826198542  0.6224479649731779  0.30115976942128286  1.0000
  C   C23       1.0  0.1065433513745285  0.517554459110728  0.6979509948127182  1.0000
  C   C24       1.0  0.8934566491118905  0.4824455411942937  0.3020490055652038  1.0000
  C   C25       1.0  0.1726675613287782  0.5584761054201164  0.6244012732679092  1.0000
  C   C26       1.0  0.8273324385952879  0.4415238945438093  0.37559872618941575  1.0000
  C   C27       1.0  0.18510783905783268  0.4600905398093552  0.5511939234121692  1.0000
  C   C28       1.0  0.8148921614285862  0.5399094604956663  0.44880607696575275  1.0000
  C   C29       1.0  0.1290753773272881  0.3200102081509648  0.5504076130058808  1.0000
  C   C30       1.0  0.870924622237426  0.679989792156129  0.44959238737751506  1.0000
  C   C31       1.0  0.061940040314012595  0.27917116864618957  0.6234331685135948  1.0000
  C   C32       1.0  0.9380599596100534  0.720828831317736  0.37656683094373006  1.0000
  C   C33       1.0  0.7309741365534724  0.3297943019219372  0.6574459219838326  1.0000
  C   C34       1.0  0.2690258633705937  0.6702056980419885  0.3425540774734925  1.0000
  C   C35       1.0  0.67200054906281  0.20839319922549662  0.5585191874371921  1.0000
  C   C36       1.0  0.32799945142360887  0.791606801079525  0.44148081294072977  1.0000
  C   C37       1.0  0.5293444469660321  0.15869070357970355  0.45501480300835506  1.0000
  C   C38       1.0  0.4706555529580339  0.8413092963842221  0.5449851964489698  1.0000
  C   C39       1.0  0.4436382460205444  0.22981852573308661  0.4480284285022156  1.0000
  C   C40       1.0  0.5563617540836667  0.7701814735689143  0.5519715718717226  1.0000
  C   C41       1.0  0.5029423214053271  0.3540086887406016  0.5425670587752762  1.0000
  C   C42       1.0  0.4970576790810919  0.64599131156442  0.4574329416026457  1.0000
  C   C43       1.0  0.6457730223706785  0.4042196852810779  0.64521127666965  1.0000
  C   C44       1.0  0.3542269777335327  0.595780314020923  0.35478872370428827  1.0000
  C   C45       1.0  0.3713388555088447  0.9209982045559255  0.8297329110369172  1.0000
  C   C46       1.0  0.6286611440558694  0.07900179575116817  0.17026708934647877  1.0000
  C   C47       1.0  0.23952192724568577  0.9182335672038738  0.7416489867110044  1.0000
  C   C48       1.0  0.7604780728585253  0.0817664320981272  0.2583510136629337  1.0000
  C   C49       1.0  0.2526413317146628  0.014757268101758656  0.6770452728876609  1.0000
  C   C50       1.0  0.7473586672876983  0.9852427318642392  0.322954726575138  1.0000
  C   C51       1.0  0.3970588624896867  0.11436843005394327  0.7010706989773666  1.0000
  C   C52       1.0  0.6029411379967323  0.8856315702510783  0.29892930140055535  1.0000
  C   C53       1.0  0.5289217668658565  0.11671551986188701  0.7891285212400716  1.0000
  C   C54       1.0  0.47107823213650457  0.8832844801041106  0.2108714782227274  1.0000
  C   C55       1.0  0.5160200037611409  0.019514835956894083  0.8531301629161127  1.0000
  C   C56       1.0  0.4839799963430702  0.9804851633451068  0.14686983745782553  1.0000
  N   N1        1.0  0.03692535137092453  0.1773276234324849  0.9795900711750956  1.0000
  N   N2        1.0  0.9630746476314366  0.822672376533513  0.020409928287703414  1.0000
  N   N3        1.0  0.864043267726521  0.37511579843667026  0.7664630065448645  1.0000
  N   N4        1.0  0.13595673127584013  0.6248842015293276  0.2335369929179344  1.0000
  O   O1        1.0  0.11607077481563233  0.019790335867891123  0.9374306257688296  1.0000
  O   O2        1.0  0.8839292251084337  0.9802096640960346  0.06256937368849533  1.0000
  O   O3        1.0  0.9711895192202925  0.3369709299338736  0.04207043670595588  1.0000
  O   O4        1.0  0.02881048126612641  0.663029070371148  0.9579295636719661  1.0000
  I   I1        1.0  0.22026757204031155  0.14576520439355936  0.29905289177350514  1.0000
  I   I2        1.0  0.7797324284461072  0.8542347959114621  0.7009471086044168  1.0000
