data_image0
_chemical_formula_structural       H48C84N4O4F8S4I4
_chemical_formula_sum              "H48 C84 N4 O4 F8 S4 I4"
_cell_length_a       10.699748112991191
_cell_length_b       4.153070539982711
_cell_length_c       39.989977733595836
_cell_angle_alpha    90.0
_cell_angle_beta     92.76825897479293
_cell_angle_gamma    90.0

_space_group_name_H-M_alt    "P 1"
_space_group_IT_number       1

loop_
  _space_group_symop_operation_xyz
  'x, y, z'

loop_
  _atom_site_type_symbol
  _atom_site_label
  _atom_site_symmetry_multiplicity
  _atom_site_fract_x
  _atom_site_fract_y
  _atom_site_fract_z
  _atom_site_occupancy
  H   H1        1.0  0.31029176769338096  0.42363972946323336  0.6637299603302509  1.0000
  H   H2        1.0  0.18970823206316578  0.9236397294653148  0.8362700396638041  1.0000
  H   H3        1.0  0.6897082325400645  0.5763602705409296  0.33627003951852247  1.0000
  H   H4        1.0  0.810291767281641  0.07636027053884817  0.16372996043552124  1.0000
  H   H5        1.0  0.41873519065972586  0.6919616347310978  0.7651164623730573  1.0000
  H   H6        1.0  0.08126480909682093  0.1919616347290164  0.7348835376209978  1.0000
  H   H7        1.0  0.5812648096196464  0.3080383652730651  0.23488353772607085  1.0000
  H   H8        1.0  0.9187351911825514  0.8080383652751466  0.2651164624781304  1.0000
  H   H9        1.0  0.6912960729732655  0.2607179939699526  0.702534119792454  1.0000
  H   H10       1.0  0.8087039273998662  0.7607179939720341  0.7974658801058835  1.0000
  H   H11       1.0  0.30870392726018003  0.7392820060342103  0.29746588005631946  1.0000
  H   H12       1.0  0.1912960728795061  0.23928200603212893  0.20253411999324458  1.0000
  H   H13       1.0  0.04153549302051477  0.38304485673547517  0.2952849443048786  1.0000
  H   H14       1.0  0.4584645061846058  0.8830448567375566  0.20471505574488272  1.0000
  H   H15       1.0  0.9584645062783651  0.6169551432686878  0.7047150555440921  1.0000
  H   H16       1.0  0.5415354931602009  0.11695514326660632  0.7952849443544426  1.0000
  H   H17       1.0  0.23636976066339496  0.27619167768934044  0.34185352475823677  1.0000
  H   H18       1.0  0.2636302394762912  0.7761916776914219  0.1581464752913273  1.0000
  H   H19       1.0  0.7636302396159772  0.7238083223148225  0.6581464753408913  1.0000
  H   H20       1.0  0.7363697608030811  0.22380832231274103  0.8418535248078008  1.0000
  H   H21       1.0  0.17240647459797984  0.6146566583505771  0.3968529404430953  1.0000
  H   H22       1.0  0.3275935255417063  0.11465665834849564  0.10314705960646875  1.0000
  H   H23       1.0  0.8275935256813924  0.38534334165358586  0.6031470596560328  1.0000
  H   H24       1.0  0.6724064746917391  0.8853433416556673  0.8968529402423046  1.0000
  H   H25       1.0  0.7751934280232937  0.05216016629491244  0.3462099413838225  1.0000
  H   H26       1.0  0.7248065717984117  0.5521601662969939  0.15379005857022124  1.0000
  H   H27       1.0  0.22480657225607853  0.9478398337092506  0.6537900587153056  1.0000
  H   H28       1.0  0.2751934284350337  0.44783983370716907  0.8462099412785521  1.0000
  H   H29       1.0  0.6595212375768088  0.36249511427905273  0.39279681769354063  1.0000
  H   H30       1.0  0.8404787622448966  0.8624951142811342  0.10720318226050309  1.0000
  H   H31       1.0  0.3404787626566366  0.6375048857251102  0.6072031821552328  1.0000
  H   H32       1.0  0.15952123709991017  0.13750488572302877  0.8927968178388223  1.0000
  H   H33       1.0  0.5493601220296368  0.8344174813882228  0.4916799632730399  1.0000
  H   H34       1.0  0.9506398777920685  0.3344174813861413  0.0083200366810038  1.0000
  H   H35       1.0  0.45063987824973545  0.1655825186159402  0.5083200368260883  1.0000
  H   H36       1.0  0.04936012150681131  0.6655825186180216  0.9916799631679668  1.0000
  H   H37       1.0  0.610349266027705  0.618191982361727  0.4378791381601761  1.0000
  H   H38       1.0  0.8896507337940003  0.11819198235964551  0.062120861793867686  1.0000
  H   H39       1.0  0.38965073331710165  0.381808017642436  0.5621208619391493  1.0000
  H   H40       1.0  0.11034926643944507  0.8818080176445174  0.9378791380549056  1.0000
  H   H41       1.0  0.9342699032008066  0.1995889865148909  0.4906651555084487  1.0000
  H   H42       1.0  0.5657300975554643  0.6995889865169724  0.009334844445397826  1.0000
  H   H43       1.0  0.06573009707856568  0.8004110134892721  0.5093348445906795  1.0000
  H   H44       1.0  0.4342699026779811  0.30041101348719057  0.9906651554033756  1.0000
  H   H45       1.0  0.8597019668694802  0.44330559817740645  0.5424941607723386  1.0000
  H   H46       1.0  0.6402980335036513  0.943305598179488  0.957505839125999  1.0000
  H   H47       1.0  0.14029803336396515  0.5566944018267566  0.45750583907643483  1.0000
  H   H48       1.0  0.35970196672979415  0.05669440182467505  0.042494160722774496  1.0000
  C   C1        1.0  0.38277009998566286  0.4374051036483388  0.6836383339342818  1.0000
  C   C2        1.0  0.11722989977088394  0.9374051036504203  0.8163616660597733  1.0000
  C   C3        1.0  0.6172299002937095  0.5625948963558242  0.3163616661648464  1.0000
  C   C4        1.0  0.8827701004625615  0.0625948963537427  0.1836383337890001  1.0000
  C   C5        1.0  0.3560786045741479  0.5672655201300307  0.7143731712476237  1.0000
  C   C6        1.0  0.1439213961169644  0.06726552012794923  0.7856268287462342  1.0000
  C   C7        1.0  0.6439213956592975  0.43273447987413227  0.28562682860114985  1.0000
  C   C8        1.0  0.8560786041624079  0.9327344798762138  0.2143731713528939  1.0000
  C   C9        1.0  0.44336254718411805  0.592714372727762  0.7411560057964135  1.0000
  C   C10       1.0  0.056637452572428665  0.09271437272568045  0.7588439941976415  1.0000
  C   C11       1.0  0.5566374521606886  0.40728562727640105  0.25884399430291183  1.0000
  C   C12       1.0  0.9433625476610168  0.9072856272784826  0.24115600565113185  1.0000
  C   C13       1.0  0.5626705380546284  0.47837332182859355  0.7354608047955165  1.0000
  C   C14       1.0  0.9373294623644299  0.9783733218306749  0.7645391953531756  1.0000
  C   C15       1.0  0.43732946222474384  0.5216266781755695  0.2645391953036116  1.0000
  C   C16       1.0  0.06267053791494227  0.021626678173487974  0.2354608047459525  1.0000
  C   C17       1.0  0.5963621757425754  0.34545742630366516  0.7054062253532667  1.0000
  C   C18       1.0  0.9036378236959907  0.8454574263057466  0.794593774545268  1.0000
  C   C19       1.0  0.40363782360223127  0.6545425737004978  0.29459377474605863  1.0000
  C   C20       1.0  0.09636217560288929  0.15454257369841637  0.20540622530370264  1.0000
  C   C21       1.0  0.5049532411781615  0.3246396147188034  0.6788880274490073  1.0000
  C   C22       1.0  0.9950467582604047  0.8246396147208849  0.8211119724495274  1.0000
  C   C23       1.0  0.49504675910121093  0.6753603852853596  0.3211119726501208  1.0000
  C   C24       1.0  0.004953241038475276  0.1753603852832781  0.1788880273994432  1.0000
  C   C25       1.0  0.5362378729150827  0.19287217548761756  0.6476454489919098  1.0000
  C   C26       1.0  0.9637621265694103  0.6928721754896991  0.8523545511569797  1.0000
  C   C27       1.0  0.463762126429724  0.8071278245165454  0.3523545511074155  1.0000
  C   C28       1.0  0.03623787370996211  0.3071278245144639  0.14764544894214854  1.0000
  C   C29       1.0  0.5655166471082755  0.08082056559564176  0.6208285628256928  1.0000
  C   C30       1.0  0.9344833533107828  0.5808205655977233  0.8791714373229994  1.0000
  C   C31       1.0  0.43448335317109665  0.9191794344085212  0.3791714372734354  1.0000
  C   C32       1.0  0.06551664696858946  0.41917943440643973  0.12082856277612873  1.0000
  C   C33       1.0  0.05862092923761964  0.46875342502805273  0.3206273729039474  1.0000
  C   C34       1.0  0.44137907090206646  0.9687534250301342  0.1793726271456167  1.0000
  C   C35       1.0  0.9413790710417527  0.5312465749761103  0.6793726271951808  1.0000
  C   C36       1.0  0.5586209293773058  0.03124657497402879  0.8206273729535113  1.0000
  C   C37       1.0  0.1530752630942091  0.4213950505177997  0.34440138851441104  1.0000
  C   C38       1.0  0.34692473704547705  0.9213950505198811  0.15559861153515303  1.0000
  C   C39       1.0  0.8469247371851631  0.5786049494863633  0.6555986115847171  1.0000
  C   C40       1.0  0.6530752632338953  0.07860494948428183  0.8444013885639752  1.0000
  C   C41       1.0  0.11903298355837143  0.5960910430407247  0.3732262849606617  1.0000
  C   C42       1.0  0.3809670165813147  0.09609104303864324  0.1267737150889024  1.0000
  C   C43       1.0  0.880967016675074  0.40390895696343826  0.6267737148881117  1.0000
  C   C44       1.0  0.6190329836980576  0.9039089569655198  0.8732262850102257  1.0000
  C   C45       1.0  0.005545341764039599  0.7403711808884422  0.3653665146539659  1.0000
  C   C46       1.0  0.4944546583297197  0.24037118088636072  0.13463348514524337  1.0000
  C   C47       1.0  0.9944546584694058  0.2596288191157207  0.6346334851948073  1.0000
  C   C48       1.0  0.5055453419037257  0.7596288191178023  0.8653665147035301  1.0000
  C   C49       1.0  0.922765648900427  0.9373783884769283  0.3835182667869538  1.0000
  C   C50       1.0  0.5772343509212785  0.43737838847484684  0.11648173316708997  1.0000
  C   C51       1.0  0.0772343504443799  0.06262161152723465  0.6164817333123715  1.0000
  C   C52       1.0  0.42276564931216687  0.5626216115293162  0.8835182666816834  1.0000
  C   C53       1.0  0.8102234781650738  0.0744912798907788  0.3720212367426851  1.0000
  C   C54       1.0  0.6897765216566316  0.5744912798928603  0.12797876321135862  1.0000
  C   C55       1.0  0.18977652117973298  0.9255087201133843  0.6279787633566403  1.0000
  C   C56       1.0  0.3102234785768138  0.4255087201113027  0.8720212366374148  1.0000
  C   C57       1.0  0.7494120112881018  0.2428574593881564  0.3970460673806165  1.0000
  C   C58       1.0  0.7505879885795306  0.7428574593902378  0.102953932823782  1.0000
  C   C59       1.0  0.25058798899127044  0.7571425406160066  0.6029539327185116  1.0000
  C   C60       1.0  0.2494120116998418  0.25714254061392505  0.8970460672753461  1.0000
  C   C61       1.0  0.8146311353904141  0.2395172271752796  0.4279455553755303  1.0000
  C   C62       1.0  0.6853688644772182  0.739517227177361  0.07205444482886816  1.0000
  C   C63       1.0  0.18536886488895818  0.7604827728288834  0.5720544447235978  1.0000
  C   C64       1.0  0.31463113486758854  0.26048277282680193  0.9279455552704571  1.0000
  C   C65       1.0  0.6346713219363861  0.6926471684759719  0.49063803154634794  1.0000
  C   C66       1.0  0.8653286778853193  0.19264716847389035  0.00936196840769579  1.0000
  C   C67       1.0  0.3653286773624938  0.30735283152819115  0.5093619683026227  1.0000
  C   C68       1.0  0.13467132239405294  0.8073528315302726  0.9906380316914323  1.0000
  C   C69       1.0  0.6688607115800889  0.5682797552506357  0.46028550028234283  1.0000
  C   C70       1.0  0.8311392882416166  0.06827975524855412  0.03971449967170088  1.0000
  C   C71       1.0  0.3311392877187911  0.4317202447535274  0.5397144995666279  1.0000
  C   C72       1.0  0.16886071203775574  0.9317202447556089  0.9602855004274273  1.0000
  C   C73       1.0  0.7785318403466107  0.38145034011548357  0.45900510870137917  1.0000
  C   C74       1.0  0.7214681594750947  0.8814503401175651  0.04099489125266451  1.0000
  C   C75       1.0  0.2214681599327616  0.6185496598886795  0.5409948913977489  1.0000
  C   C76       1.0  0.27853183982378515  0.11854965988659794  0.9590051085963063  1.0000
  C   C77       1.0  0.848183254260252  0.3401505142760905  0.4895486884477782  1.0000
  C   C78       1.0  0.6518167455614535  0.840150514278172  0.010451311506265534  1.0000
  C   C79       1.0  0.15181674597319356  0.6598494857280726  0.5104513114009952  1.0000
  C   C80       1.0  0.34818325378335324  0.159849485725991  0.9895486885930599  1.0000
  C   C81       1.0  0.8065930514243189  0.47563625057238335  0.5187459370895386  1.0000
  C   C82       1.0  0.6934069480601739  0.9756362505744649  0.9812540630593507  1.0000
  C   C83       1.0  0.1934069479204878  0.5243637494317797  0.4812540630097867  1.0000
  C   C84       1.0  0.30659305221919836  0.02436374942969816  0.01874593703977741  1.0000
  N   N1        1.0  0.7008505011145529  0.6491075323780131  0.5197338118319186  1.0000
  N   N2        1.0  0.7991494983240132  0.14910753237593166  0.9802661880666163  1.0000
  N   N3        1.0  0.299149498184327  0.35089246762614984  0.48026618801705206  1.0000
  N   N4        1.0  0.20085050190943224  0.8508924676282313  0.019733811782157263  1.0000
  O   O1        1.0  0.9676924358371588  0.6632264281288771  0.3327862375863553  1.0000
  O   O2        1.0  0.5323075639845467  0.16322642812679558  0.16721376236768845  1.0000
  O   O3        1.0  0.032307563507647984  0.33677357187528595  0.66721376251297  1.0000
  O   O4        1.0  0.4676924362488988  0.8367735718773675  0.8327862374810849  1.0000
  F   F1        1.0  0.651164141758152  0.4955408318223672  0.7612488882768611  1.0000
  F   F2        1.0  0.8488358577263408  0.9955408318244486  0.7387511118720284  1.0000
  F   F3        1.0  0.34883585758665475  0.5044591681817959  0.23875111182246422  1.0000
  F   F4        1.0  0.15116414161846584  0.0044591681797143505  0.261248888227297  1.0000
  F   F5        1.0  0.2374337283934039  0.676219279919019  0.7186751333224293  1.0000
  F   F6        1.0  0.2625662713631428  0.17621927991693748  0.7813248666716256  1.0000
  F   F7        1.0  0.762566270905476  0.323780720085144  0.28132486652654126  1.0000
  F   F8        1.0  0.7374337289162295  0.8237807200872255  0.21867513342750244  1.0000
  S   S1        1.0  0.9532627994623345  0.024650214585670436  0.42537182557953823  1.0000
  S   S2        1.0  0.5467372003593709  0.524650214587752  0.07462817437450547  1.0000
  S   S3        1.0  0.046737200817037784  0.9753497854184926  0.5746281745195899  1.0000
  S   S4        1.0  0.45326279898543587  0.4753497854164111  0.9253718257248199  1.0000
  I   I1        1.0  0.621678852929216  0.8949469565271273  0.5771026777872521  1.0000
  I   I2        1.0  0.87832114650935  0.3949469565250458  0.9228973221112825  1.0000
  I   I3        1.0  0.3783211473042294  0.10505304347703573  0.42289732206152125  1.0000
  I   I4        1.0  0.12167885283545672  0.6050530434791173  0.0771026779880428  1.0000
