data_image0
_chemical_formula_structural       H28C64N12F20I4
_chemical_formula_sum              "H28 C64 N12 F20 I4"
_cell_length_a       7.814387744248222
_cell_length_b       15.216336326196233
_cell_length_c       12.853480928010136
_cell_angle_alpha    90.0
_cell_angle_beta     103.09572841081503
_cell_angle_gamma    90.0

_space_group_name_H-M_alt    "P 1"
_space_group_IT_number       1

loop_
  _space_group_symop_operation_xyz
  'x, y, z'

loop_
  _atom_site_type_symbol
  _atom_site_label
  _atom_site_symmetry_multiplicity
  _atom_site_fract_x
  _atom_site_fract_y
  _atom_site_fract_z
  _atom_site_occupancy
  H   H1        1.0  0.5156466519724625  0.5080866467633239  0.3775186910369027  1.0000
  H   H2        1.0  0.48435334759189475  0.008086646309740165  0.12248130886268174  1.0000
  H   H3        1.0  0.48435334834893906  0.49191335348665516  0.6224813089021046  1.0000
  H   H4        1.0  0.5156466514501199  0.9919133532830505  0.8775186910771394  1.0000
  H   H5        1.0  0.3330661575747703  0.32827118912983877  0.3280562867487764  1.0000
  H   H6        1.0  0.666933841989587  0.8282711889262342  0.1719437131508081  1.0000
  H   H7        1.0  0.6669338414672444  0.6717288111201404  0.6719437131910446  1.0000
  H   H8        1.0  0.3330661583318146  0.1717288106665566  0.8280562867881993  1.0000
  H   H9        1.0  0.03372340895364786  0.2657391729071231  0.25536357505720586  1.0000
  H   H10       1.0  0.9662765918900962  0.7657391733607068  0.24463642484156486  1.0000
  H   H11       1.0  0.9662765913677537  0.7342608266856675  0.7446364248818016  1.0000
  H   H12       1.0  0.03372340843130537  0.2342608268892722  0.7553635750974426  1.0000
  H   H13       1.0  0.7188575314215913  0.2885445409379668  0.1780900461426832  1.0000
  H   H14       1.0  0.2811424694221528  0.7885445413915505  0.3219099537560875  1.0000
  H   H15       1.0  0.28114246889981026  0.711455458654824  0.821909953796324  1.0000
  H   H16       1.0  0.7188575308992488  0.21145545885842856  0.6780900461829199  1.0000
  H   H17       1.0  0.4674284074576455  0.3893078375115566  0.11161461093617037  1.0000
  H   H18       1.0  0.5325715933860985  0.889307837307952  0.38838538896260033  1.0000
  H   H19       1.0  0.532571592863756  0.6106921627384225  0.8883853890028369  1.0000
  H   H20       1.0  0.467428406935303  0.11069216294202713  0.611614610976407  1.0000
  H   H21       1.0  0.5120796242729825  0.5509082291752634  0.12120431177343584  1.0000
  H   H22       1.0  0.4879203752913747  0.05090822872167962  0.3787956881261486  1.0000
  H   H23       1.0  0.4879203747690322  0.4490917710747157  0.8787956881663853  1.0000
  H   H24       1.0  0.5120796250300268  0.9490917708711112  0.6212043118128587  1.0000
  H   H25       1.0  0.8078789439810169  0.6135508193208953  0.1983215475584789  1.0000
  H   H26       1.0  0.19212105558334036  0.11355081952449989  0.3016784523411056  1.0000
  H   H27       1.0  0.19212105634038476  0.38644918027189545  0.8016784523805286  1.0000
  H   H28       1.0  0.8078789434586743  0.8864491807254793  0.6983215475987156  1.0000
  C   C1        1.0  0.3784072333404436  0.521613976574353  0.34351421199037696  1.0000
  C   C2        1.0  0.6215927662239136  0.021613976777957726  0.1564857879092075  1.0000
  C   C3        1.0  0.6215927669809579  0.47838602301843763  0.6564857879486303  1.0000
  C   C4        1.0  0.3784072328181011  0.9783860234720214  0.8435142120306136  1.0000
  C   C5        1.0  0.24050943323193202  0.4629651565910814  0.30834492100255556  1.0000
  C   C6        1.0  0.7594905663324253  0.9629651563874768  0.19165507889702896  1.0000
  C   C7        1.0  0.7594905670894696  0.5370348436588978  0.6916550789364518  1.0000
  C   C8        1.0  0.2405094327095895  0.03703484386250234  0.8083449210427922  1.0000
  C   C9        1.0  0.21901639220782376  0.370247816506323  0.301442352573088  1.0000
  C   C10       1.0  0.7809836073565335  0.8702478163027183  0.1985576473264965  1.0000
  C   C11       1.0  0.7809836081135778  0.6297521837436562  0.6985576473659193  1.0000
  C   C12       1.0  0.21901639168548123  0.12975218394726076  0.8014423526133246  1.0000
  C   C13       1.0  0.055480140055292115  0.3365480658562803  0.2615766457214052  1.0000
  C   C14       1.0  0.9445198610874483  0.8365480656526756  0.23842335497613826  1.0000
  C   C15       1.0  0.9445198602661095  0.6634519337365105  0.7384233542176021  1.0000
  C   C16       1.0  0.055480139532949585  0.16345193394011506  0.7615766457616419  1.0000
  C   C17       1.0  0.9070478061980837  0.3931933141948115  0.22533359530794833  1.0000
  C   C18       1.0  0.09295219336627357  0.8931933139912068  0.27466640459163616  1.0000
  C   C19       1.0  0.09295219412331784  0.6068066860551675  0.774666404631059  1.0000
  C   C20       1.0  0.9070478056757413  0.10680668560158382  0.7253335953481851  1.0000
  C   C21       1.0  0.7372477856243435  0.35971588972943497  0.1821189040255352  1.0000
  C   C22       1.0  0.2627522139400137  0.8597158895258303  0.3178810958740493  1.0000
  C   C23       1.0  0.26275221341767124  0.6402841105205441  0.817881095914286  1.0000
  C   C24       1.0  0.7372477863813878  0.1402841107241488  0.682118904064958  1.0000
  C   C25       1.0  0.5975614976634237  0.4159762017814361  0.14512973993001357  1.0000
  C   C26       1.0  0.4024385019009335  0.9159762022350199  0.35487025996957094  1.0000
  C   C27       1.0  0.4024385026579778  0.5840237978113547  0.8548702600089938  1.0000
  C   C28       1.0  0.5975614971410812  0.0840237980149593  0.6451297399702502  1.0000
  C   C29       1.0  0.6227296952376351  0.5074364843465687  0.1505781088506183  1.0000
  C   C30       1.0  0.37727030432672215  0.007436484550173363  0.34942189104896615  1.0000
  C   C31       1.0  0.3772703050837664  0.492563515246222  0.849421891088389  1.0000
  C   C32       1.0  0.6227296947152926  0.9925635156998057  0.650578108890855  1.0000
  C   C33       1.0  0.7870523206639239  0.5428938413892854  0.19335437851978357  1.0000
  C   C34       1.0  0.21294768017982013  0.042893840935701644  0.30664562137898715  1.0000
  C   C35       1.0  0.21294767965747763  0.4571061588606937  0.8066456214192238  1.0000
  C   C36       1.0  0.7870523201415813  0.957106158657089  0.6933543785600201  1.0000
  C   C37       1.0  0.928433423763197  0.4860385300019704  0.23044928194986222  1.0000
  C   C38       1.0  0.0715665758011603  0.9860385297983657  0.26955071794972224  1.0000
  C   C39       1.0  0.07156657655820461  0.5139614702480088  0.7695507179891451  1.0000
  C   C40       1.0  0.9284334232408544  0.013961470451613379  0.730449281990099  1.0000
  C   C41       1.0  0.9163217483319944  0.7336865577018151  0.4770834630764453  1.0000
  C   C42       1.0  0.08367825123236286  0.23368655790541987  0.02291653682313914  1.0000
  C   C43       1.0  0.08367825198940718  0.26631344254816386  0.522916536862562  1.0000
  C   C44       1.0  0.9163217478096518  0.7663134423445592  0.9770834631166819  1.0000
  C   C45       1.0  0.9660833942500415  0.821214630258091  0.4972463338125589  1.0000
  C   C46       1.0  0.033916605613312084  0.32121463046169574  0.002753666885798313  1.0000
  C   C47       1.0  0.033916604791973164  0.17878536999188804  0.5027536661272621  1.0000
  C   C48       1.0  0.9660833950070857  0.6787853697882834  0.9972463338519817  1.0000
  C   C49       1.0  0.13910445813260547  0.844272165428103  0.5440311932548987  1.0000
  C   C50       1.0  0.8608955429458404  0.3442721649745193  0.9559688067235316  1.0000
  C   C51       1.0  0.860895542188796  0.1557278348218761  0.4559688066841087  1.0000
  C   C52       1.0  0.13910445737556112  0.6557278346182714  0.044031193215475786  1.0000
  C   C53       1.0  0.26564239953632746  0.7786155935317495  0.5718785576013655  1.0000
  C   C54       1.0  0.7343576002627314  0.27861559307816564  0.9281214423778784  1.0000
  C   C55       1.0  0.7343576007850741  0.2213844067182297  0.42812144233764177  1.0000
  C   C56       1.0  0.2656423987792832  0.7213844065146251  0.07187855756194271  1.0000
  C   C57       1.0  0.21880107787933242  0.6908494432988016  0.552404538395633  1.0000
  C   C58       1.0  0.7811989231991134  0.19084944350240624  0.9475954615827973  1.0000
  C   C59       1.0  0.781198922442069  0.3091505569511775  0.4475954615433744  1.0000
  C   C60       1.0  0.21880107712228808  0.8091505567475729  0.05240453835621005  1.0000
  C   C61       1.0  0.04537556364222868  0.669189740665087  0.5055283927759442  1.0000
  C   C62       1.0  0.9546244361568303  0.16918974086869162  0.9944716072032999  1.0000
  C   C63       1.0  0.9546244366791728  0.3308102589277037  0.49447160716306315  1.0000
  C   C64       1.0  0.0453755641645712  0.8308102593812875  0.005528392735707559  1.0000
  N   N1        1.0  0.09732868636684149  0.5172885010729547  0.2733612992809342  1.0000
  N   N2        1.0  0.9026713131975157  0.01728850127655935  0.22663870061865024  1.0000
  N   N3        1.0  0.90267131395456  0.482711498519836  0.726638700658073  1.0000
  N   N4        1.0  0.09732868712388579  0.9827114989734198  0.773361299320357  1.0000
  N   N5        1.0  0.14402145819441942  0.6035403419803174  0.2857520177113923  1.0000
  N   N6        1.0  0.8559785413699378  0.10354034218392195  0.21424798218819222  1.0000
  N   N7        1.0  0.8559785408475953  0.39645965761247337  0.7142479822284289  1.0000
  N   N8        1.0  0.1440214589514638  0.8964596580660572  0.7857520177508153  1.0000
  N   N9        1.0  0.3150507600189864  0.604519819541834  0.32840684877991705  1.0000
  N   N10       1.0  0.6849492408247577  0.10451981974543861  0.17159315111885362  1.0000
  N   N11       1.0  0.6849492403024151  0.39548018070814517  0.6715931511590902  1.0000
  N   N12       1.0  0.3150507594966439  0.8954801805045406  0.8284068488201537  1.0000
  F   F1        1.0  0.8468900397390442  0.8865477583310108  0.4710319824847524  1.0000
  F   F2        1.0  0.153109959825313  0.3865477585346155  0.02896801741483202  1.0000
  F   F3        1.0  0.15310996058235735  0.11345224126177986  0.5289680174542549  1.0000
  F   F4        1.0  0.8468900404960885  0.6134522417153636  0.9710319825241753  1.0000
  F   F5        1.0  0.18487864246526148  0.9293621885613957  0.5603865361934709  1.0000
  F   F6        1.0  0.8151213573337976  0.42936218876500043  0.939613463785773  1.0000
  F   F7        1.0  0.81512135785614  0.07063781103139495  0.4396134637455364  1.0000
  F   F8        1.0  0.18487864170821713  0.5706378108277903  0.060386536154048064  1.0000
  F   F9        1.0  0.4337806494206783  0.799570134964372  0.617057848377338  1.0000
  F   F10       1.0  0.5662193503783808  0.2995701351679767  0.8829421516019059  1.0000
  F   F11       1.0  0.5662193511997197  0.20042986462841864  0.38294215236044205  1.0000
  F   F12       1.0  0.4337806499430208  0.7004298650820024  0.11705784833710142  1.0000
  F   F13       1.0  0.34159636852470865  0.6275184417132907  0.5800002242887873  1.0000
  F   F14       1.0  0.6584036312743504  0.1275184419168954  0.9199997756904568  1.0000
  F   F15       1.0  0.6584036305173061  0.37248155787949994  0.41999977565103386  1.0000
  F   F16       1.0  0.34159636904705115  0.8724815583330837  0.08000022424855062  1.0000
  F   F17       1.0  0.004210350476260546  0.5835135600094579  0.4898933962011158  1.0000
  F   F18       1.0  0.9957896490880966  0.08351356021306254  0.010106603698468697  1.0000
  F   F19       1.0  0.995789649845141  0.4164864395833328  0.5101066037378915  1.0000
  F   F20       1.0  0.004210349953917992  0.9164864400369165  0.9898933962413524  1.0000
  I   I1        1.0  0.6567395143221123  0.6976485010865748  0.408701428911344  1.0000
  I   I2        1.0  0.3432604855412411  0.197648500632991  0.09129857178701324  1.0000
  I   I3        1.0  0.3432604859992891  0.30235149916340437  0.5912985710276634  1.0000
  I   I4        1.0  0.6567395137997699  0.8023514989597997  0.9087014289515807  1.0000
