data_image0
_chemical_formula_structural       H10C24N6F8I4
_chemical_formula_sum              "H10 C24 N6 F8 I4"
_cell_length_a       8.082883075649669
_cell_length_b       7.149306480273849
_cell_length_c       12.318522695089253
_cell_angle_alpha    90.0
_cell_angle_beta     92.27025014316574
_cell_angle_gamma    90.0

_space_group_name_H-M_alt    "P 1"
_space_group_IT_number       1

loop_
  _space_group_symop_operation_xyz
  'x, y, z'

loop_
  _atom_site_type_symbol
  _atom_site_label
  _atom_site_symmetry_multiplicity
  _atom_site_fract_x
  _atom_site_fract_y
  _atom_site_fract_z
  _atom_site_occupancy
  H   H1        1.0  0.5383074074156736  0.6171777545380858  0.02374415302498185  1.0000
  H   H2        1.0  0.4616925916381226  0.1171777531585009  0.97625584729798  1.0000
  H   H3        1.0  0.7500999628139378  0.9792104617861961  0.004184505294571796  1.0000
  H   H4        1.0  0.24990003623985854  0.4792104618053482  0.99581549502839  1.0000
  H   H5        1.0  0.891148057526024  0.21734543823060162  0.1249137837175658  1.0000
  H   H6        1.0  0.10885194276485874  0.7173454382114494  0.8750862166038453  1.0000
  H   H7        1.0  0.8779611735092968  0.18660904993807137  0.32732590500620423  1.0000
  H   H8        1.0  0.12203882673017748  0.6866090499189192  0.6726740945027849  1.0000
  H   H9        1.0  0.7205844681836473  0.9184619288762788  0.4065351555169663  1.0000
  H   H10       1.0  0.2794155320558271  0.41846192889543105  0.5934648439920228  1.0000
  C   C1        1.0  0.5668306192403544  0.6658466150716283  0.10561956761894824  1.0000
  C   C2        1.0  0.4331693810505283  0.1658466150907805  0.8943804327024627  1.0000
  C   C3        1.0  0.6584192299199315  0.8232938000686384  0.13944370573266235  1.0000
  C   C4        1.0  0.34158077037095114  0.32329380008779063  0.8605562945887486  1.0000
  C   C5        1.0  0.744843244480474  0.9721110976534592  0.0921609736469617  1.0000
  C   C6        1.0  0.25515675575900026  0.4721110976726112  0.9078390258620274  1.0000
  C   C7        1.0  0.8231186223129596  0.10150401888662677  0.15934282556768414  1.0000
  C   C8        1.0  0.17688137674083665  0.6015040202662116  0.8406571747552776  1.0000
  C   C9        1.0  0.8169332038115917  0.08480564257147023  0.2740471206660885  1.0000
  C   C10       1.0  0.18306679642788248  0.584805642552318  0.7259528788429007  1.0000
  C   C11       1.0  0.7330013020285576  0.9408197548333888  0.3200090839769616  1.0000
  C   C12       1.0  0.2669986982623251  0.4408197548525408  0.6799909163444494  1.0000
  C   C13       1.0  0.7706192772861988  0.3878923525871527  0.6403668441873284  1.0000
  C   C14       1.0  0.22938072295327552  0.8878923525680005  0.3596331553216608  1.0000
  C   C15       1.0  0.7563923946050182  0.46892686993488414  0.74371400598444  1.0000
  C   C16       1.0  0.2436076044487781  0.968926869915732  0.2562859943385218  1.0000
  C   C17       1.0  0.8248076719748738  0.37558202846790634  0.8341957009685594  1.0000
  C   C18       1.0  0.17519232826460052  0.8755820284487541  0.16580429854042963  1.0000
  C   C19       1.0  0.9122678219799172  0.20918737140818644  0.8241751227903118  1.0000
  C   C20       1.0  0.08773217702247066  0.7091873713890343  0.1758248767202282  1.0000
  C   C21       1.0  0.9302944451877149  0.13207062707484216  0.7217413568650581  1.0000
  C   C22       1.0  0.0697055551031679  0.63207062705569  0.27825864345635287  1.0000
  C   C23       1.0  0.8572992447812843  0.22023945180479765  0.6311657459518093  1.0000
  C   C24       1.0  0.14270075422110368  0.7202394517856455  0.3688342535587307  1.0000
  N   N1        1.0  0.655856539142051  0.8135158488515684  0.2521647889186161  1.0000
  N   N2        1.0  0.3441434610974232  0.31351584887072065  0.7478352105903731  1.0000
  N   N3        1.0  0.5686402815887285  0.6620785279048059  0.2844364332597326  1.0000
  N   N4        1.0  0.43135971865074585  0.16207852792395813  0.7155635662492567  1.0000
  N   N5        1.0  0.5168752969860453  0.5750831848297702  0.1945362499937584  1.0000
  N   N6        1.0  0.4831247033048375  0.07508318484892237  0.8054637503276526  1.0000
  F   F1        1.0  0.8105368631629406  0.4447427409599885  0.9359186561755973  1.0000
  F   F2        1.0  0.18946313589085567  0.9447427409408363  0.06408134414736454  1.0000
  F   F3        1.0  0.9810332041383429  0.12268930453886509  0.9124593980953214  1.0000
  F   F4        1.0  0.018966794915453302  0.6226893045197129  0.08754060222764036  1.0000
  F   F5        1.0  0.018115899989745853  0.9730220055880914  0.71152066566245  1.0000
  F   F6        1.0  0.9818840990640504  0.4730220056072436  0.2884793346605118  1.0000
  F   F7        1.0  0.8742280716761323  0.13638658416594424  0.5334629672441457  1.0000
  F   F8        1.0  0.12577192861475048  0.6363865855455291  0.4665370330772654  1.0000
  I   I1        1.0  0.6660188463234018  0.5038588805696324  0.49642242757919924  1.0000
  I   I2        1.0  0.33398115267898615  0.0038588805887845006  0.5035775719313407  1.0000
  I   I3        1.0  0.6405357198403956  0.7297786609646297  0.7698756415992408  1.0000
  I   I4        1.0  0.3594642804504871  0.2297786609837819  0.23012435872217024  1.0000
