data_image0
_chemical_formula_structural       H104C52N12O16Br8
_chemical_formula_sum              "H104 C52 N12 O16 Br8"
_cell_length_a       7.601708197993735
_cell_length_b       17.812102683124227
_cell_length_c       13.604761176555265
_cell_angle_alpha    90.0
_cell_angle_beta     99.40861195141095
_cell_angle_gamma    90.0

_space_group_name_H-M_alt    "P 1"
_space_group_IT_number       1

loop_
  _space_group_symop_operation_xyz
  'x, y, z'

loop_
  _atom_site_type_symbol
  _atom_site_label
  _atom_site_symmetry_multiplicity
  _atom_site_fract_x
  _atom_site_fract_y
  _atom_site_fract_z
  _atom_site_occupancy
  H   H1        1.0  0.15132021367196447  0.9007081289285485  0.25731767539516653  1.0000
  H   H2        1.0  0.6513202136951435  0.5992918713697689  0.75731767595013  1.0000
  H   H3        1.0  0.8486797859547647  0.09929187145746847  0.74268232422467  1.0000
  H   H4        1.0  0.34867978614140005  0.400708129016248  0.24268232441475177  1.0000
  H   H5        1.0  0.9901369072745861  0.9032436729237439  0.15118689182621659  1.0000
  H   H6        1.0  0.49013690747880867  0.5967563273745735  0.651186891245808  1.0000
  H   H7        1.0  0.00986309256195739  0.09675632746227306  0.8488131085386652  1.0000
  H   H8        1.0  0.5098630934647415  0.4032436724500274  0.34881310837865187  1.0000
  H   H9        1.0  0.41037862277533604  0.037252647921722754  0.708217681114542  1.0000
  H   H10       1.0  0.9103786236781201  0.4627473519905777  0.20821768095452872  1.0000
  H   H11       1.0  0.5896213768513929  0.9627473524642941  0.2917823185052944  1.0000
  H   H12       1.0  0.08962137726543004  0.5372526478340233  0.7917823186699311  1.0000
  H   H13       1.0  0.2917328361356814  0.04916349661680718  0.5913383911028852  1.0000
  H   H14       1.0  0.7917328359314589  0.45083650385690927  0.09133839168329384  1.0000
  H   H15       1.0  0.7082671634910477  0.9508365037692098  0.40866160851695127  1.0000
  H   H16       1.0  0.20826716390508465  0.5491634965291077  0.9086616086815879  1.0000
  H   H17       1.0  0.08935195889815614  0.7783297214615159  0.013984978186186854  1.0000
  H   H18       1.0  0.5893519589213352  0.7216702788368015  0.5139849787411505  1.0000
  H   H19       1.0  0.910648040728573  0.221670278924501  0.9860150214336496  1.0000
  H   H20       1.0  0.41064804091520835  0.2783297215492155  0.4860150216237314  1.0000
  H   H21       1.0  0.19486815039703786  0.8616510679865454  0.04705700530345374  1.0000
  H   H22       1.0  0.6948681502104024  0.638348931750356  0.5470570051133721  1.0000
  H   H23       1.0  0.8051318492296913  0.13834893183805555  0.9529429943163829  1.0000
  H   H24       1.0  0.30513184941632665  0.3616510680742449  0.4529429945064645  1.0000
  H   H25       1.0  0.211707868166616  0.9219061590947305  0.574619128848662  1.0000
  H   H26       1.0  0.7117078690694001  0.5780938406421708  0.07461912868864855  1.0000
  H   H27       1.0  0.788292131460113  0.07809384072987037  0.4253808707711746  1.0000
  H   H28       1.0  0.28829213055732894  0.42190615918243013  0.9253808709311878  1.0000
  H   H29       1.0  0.447808638150606  0.9355146961839342  0.5963105085534979  1.0000
  H   H30       1.0  0.9478086390533901  0.5644853035529671  0.09631050839348454  1.0000
  H   H31       1.0  0.5521913614761229  0.06448530364066672  0.40368949106633856  1.0000
  H   H32       1.0  0.052191361890159986  0.43551469627163375  0.9036894912309752  1.0000
  H   H33       1.0  0.08058157627151402  0.8405162818977213  0.681727039032313  1.0000
  H   H34       1.0  0.580581575857477  0.6594837184005962  0.18172703886767635  1.0000
  H   H35       1.0  0.9194184233552151  0.15948371848829565  0.31827296058752347  1.0000
  H   H36       1.0  0.4194184237692521  0.3405162819854208  0.8182729607521602  1.0000
  H   H37       1.0  0.0934298985754615  0.7723319646609549  0.8426554560867866  1.0000
  H   H38       1.0  0.5934298994782455  0.7276680356373625  0.3426554559267732  1.0000
  H   H39       1.0  0.9065701012610822  0.22766803572506208  0.15734454427809516  1.0000
  H   H40       1.0  0.40657010014848355  0.27233196418723843  0.6573445436930634  1.0000
  H   H41       1.0  0.6174506952837062  0.864548814025754  0.9432471613693537  1.0000
  H   H42       1.0  0.11745069526052727  0.6354511862725635  0.4432471608143902  1.0000
  H   H43       1.0  0.38254930455283725  0.13545118579884696  0.05675283899552803  1.0000
  H   H44       1.0  0.8825493043662017  0.3645488141134535  0.5567528388054462  1.0000
  H   H45       1.0  0.6062909207080054  0.9294248065212852  0.7813651963580583  1.0000
  H   H46       1.0  0.10629092089464098  0.5705751937770321  0.28136519654814  1.0000
  H   H47       1.0  0.39370907891872353  0.0705751938647317  0.2186348032617782  1.0000
  H   H48       1.0  0.8937090789419027  0.4294248060475688  0.7186348038167417  1.0000
  H   H49       1.0  0.35725336002458796  0.7171537823045746  0.0003157098919302174  1.0000
  H   H50       1.0  0.8572533598379525  0.7828462174323267  0.5003157097018485  1.0000
  H   H51       1.0  0.6427466398119557  0.28284621752002637  0.9996842904729515  1.0000
  H   H52       1.0  0.14274663978877652  0.21715378239227412  0.49968428991798797  1.0000
  H   H53       1.0  0.4853699637852208  0.7955751099181539  0.05394029155763328  1.0000
  H   H54       1.0  0.9853699635985854  0.7044248898187475  0.5539402913675516  1.0000
  H   H55       1.0  0.5146300360513227  0.20442488990644705  0.9460597088072485  1.0000
  H   H56       1.0  0.014630036028143693  0.2955751100058534  0.44605970825228497  1.0000
  H   H57       1.0  0.25555605610889987  0.7187994852584303  0.16079813185604522  1.0000
  H   H58       1.0  0.7555560561320789  0.7812005150398871  0.6607981324110087  1.0000
  H   H59       1.0  0.7444439435178292  0.28120051512758665  0.8392018677637914  1.0000
  H   H60       1.0  0.24444394370446468  0.2187994853461299  0.3392018679538731  1.0000
  H   H61       1.0  0.34738263178529877  0.8090206308799718  0.19875930233185776  1.0000
  H   H62       1.0  0.8473826315986632  0.6909793694183456  0.698759302141776  1.0000
  H   H63       1.0  0.6526173693680659  0.19097936894462914  0.8012406980376473  1.0000
  H   H64       1.0  0.15261736955470145  0.30902063096767135  0.3012406982277291  1.0000
  H   H65       1.0  0.08649315643714416  0.7674237754619992  0.2785907904355254  1.0000
  H   H66       1.0  0.5864931562505087  0.7325762242749022  0.7785907902454438  1.0000
  H   H67       1.0  0.9135068433993995  0.2325762243626017  0.7214092099293562  1.0000
  H   H68       1.0  0.41350684337622035  0.26742377554969876  0.22140920937439276  1.0000
  H   H69       1.0  0.9461656536142716  0.7695237324780476  0.15921358250672432  1.0000
  H   H70       1.0  0.446165653818494  0.7304762672588538  0.6592135819263157  1.0000
  H   H71       1.0  0.053834346222272046  0.23047626734655338  0.8407864178581573  1.0000
  H   H72       1.0  0.5538343471250562  0.2695237325657471  0.34078641769814405  1.0000
  H   H73       1.0  0.7682406130854548  0.8597313036213647  0.24448646017927286  1.0000
  H   H74       1.0  0.2682406134994918  0.6402686961155366  0.7444864603439095  1.0000
  H   H75       1.0  0.23175938675108884  0.14026869620323618  0.7555135401856089  1.0000
  H   H76       1.0  0.7317593863370518  0.3597313037090643  0.25551354002097226  1.0000
  H   H77       1.0  0.9347845059109493  0.8578696093233964  0.3542139520269904  1.0000
  H   H78       1.0  0.43478450632498633  0.642130390974921  0.8542139521916271  1.0000
  H   H79       1.0  0.06521549392559431  0.14213039050120457  0.6457860483378913  1.0000
  H   H80       1.0  0.5652154935115573  0.35786960941109586  0.14578604817325472  1.0000
  H   H81       1.0  0.024928341503644463  0.004753098020269791  0.6522816806038148  1.0000
  H   H82       1.0  0.5249283424064286  0.49524690189203063  0.15228168044380141  1.0000
  H   H83       1.0  0.9750716581230846  0.9952469018043311  0.3477183190160216  1.0000
  H   H84       1.0  0.4750716572203005  0.5047530984939863  0.8477183191760351  1.0000
  H   H85       1.0  0.15504199502717078  0.0005838137240165536  0.7739348669125572  1.0000
  H   H86       1.0  0.6550419946131337  0.49941618618828393  0.2739348667479205  1.0000
  H   H87       1.0  0.8449580045995583  0.9994161861005844  0.22606513270727926  1.0000
  H   H88       1.0  0.34495800501359525  0.500583813636317  0.726065132871916  1.0000
  H   H89       1.0  0.5723523330464632  0.05189940774796019  0.8937540075122666  1.0000
  H   H90       1.0  0.07235233323309864  0.4481005921643403  0.3937540077023484  1.0000
  H   H91       1.0  0.4276476667900805  0.9481005920766407  0.10624599285261516  1.0000
  H   H92       1.0  0.9276476666034451  0.5518994076602607  0.6062459926625334  1.0000
  H   H93       1.0  0.3676027469458961  0.06018149508062343  0.8996280016915724  1.0000
  H   H94       1.0  0.8676027465318592  0.439818504831677  0.39962800152693567  1.0000
  H   H95       1.0  0.6323972528906474  0.9398185047439775  0.10037199867330938  1.0000
  H   H96       1.0  0.1323972533046845  0.5601814949929239  0.600371998837946  1.0000
  H   H97       1.0  0.6502403648973142  0.11100450773132399  0.6168102852747132  1.0000
  H   H98       1.0  0.15024036508394953  0.3889954927423925  0.11681028546479488  1.0000
  H   H99       1.0  0.349759634729415  0.888995492654693  0.3831897143451234  1.0000
  H   H100      1.0  0.8497596345427796  0.6110045076436245  0.8831897141550417  1.0000
  H   H101      1.0  0.7018797683934741  0.024088862928379487  0.6272313579504147  1.0000
  H   H102      1.0  0.201879768370295  0.475911137545337  0.12723135739545122  1.0000
  H   H103      1.0  0.2981202314430695  0.9759111374576375  0.37276864241446706  1.0000
  H   H104      1.0  0.7981202312564339  0.5240888628406799  0.8727686422243853  1.0000
  C   C1        1.0  0.3266216658929762  0.9375004606177711  0.6305442260675214  1.0000
  C   C2        1.0  0.8266216654789392  0.5624995396805462  0.13054422590288461  1.0000
  C   C3        1.0  0.6733783337337529  0.062499539768245786  0.3694557735523152  1.0000
  C   C4        1.0  0.17337833414778986  0.4375004601440547  0.8694557737169518  1.0000
  C   C5        1.0  0.3419833398823901  0.8891887561936047  0.7215548505332149  1.0000
  C   C6        1.0  0.841983339468353  0.6108112435432966  0.22155485036857817  1.0000
  C   C7        1.0  0.6580166599541535  0.11081124363099622  0.27844514983166696  1.0000
  C   C8        1.0  0.15801666015837598  0.3891887562813043  0.7784451492512584  1.0000
  C   C9        1.0  0.19944623210178397  0.8440430289144851  0.738793035174436  1.0000
  C   C10       1.0  0.699446233004568  0.6559569708224162  0.23879303501442264  1.0000
  C   C11       1.0  0.8005537677347596  0.15595697091011576  0.2612069651904458  1.0000
  C   C12       1.0  0.3005537679389821  0.3440430290021847  0.7612069646100371  1.0000
  C   C13       1.0  0.20689164015615544  0.8064444976285352  0.8292518050451622  1.0000
  C   C14       1.0  0.7068916397421184  0.6935555021083663  0.3292518048805254  1.0000
  C   C15       1.0  0.7931083594705736  0.19355550219606577  0.17074819457467438  1.0000
  C   C16       1.0  0.29310835988461065  0.3064444977162347  0.6707481947393111  1.0000
  C   C17       1.0  0.35637991388768847  0.814782769793377  0.9039573616535161  1.0000
  C   C18       1.0  0.8563799150002872  0.6852172299435243  0.40395736223854806  1.0000
  C   C19       1.0  0.6436200857390405  0.1852172300312239  0.09604263796632038  1.0000
  C   C20       1.0  0.14362008483625646  0.31478276988107656  0.5960426381263337  1.0000
  C   C21       1.0  0.5005217027198917  0.8585739276300658  0.88570736412582  1.0000
  C   C22       1.0  0.00052170290652723  0.6414260721068357  0.38570736431590175  1.0000
  C   C23       1.0  0.49947829690683726  0.14142607219453515  0.11429263549401655  1.0000
  C   C24       1.0  0.9994782980370229  0.3585739277177653  0.614292635308558  1.0000
  C   C25       1.0  0.494189976527024  0.8947801134730773  0.7946521405184491  1.0000
  C   C26       1.0  0.9941899776396226  0.6052198868252401  0.29465214110348104  1.0000
  C   C27       1.0  0.505810023099705  0.10521988635152361  0.2053478591013874  1.0000
  C   C28       1.0  0.005810023513742025  0.39478011356077686  0.705347859266024  1.0000
  C   C29       1.0  0.3635876668220146  0.778757861257006  0.004082316715972963  1.0000
  C   C30       1.0  0.8635876666353791  0.7212421390413115  0.5040823165258912  1.0000
  C   C31       1.0  0.636412333014529  0.22124213856759495  0.9959176836489088  1.0000
  C   C32       1.0  0.13641233320116447  0.2787578613447055  0.49591768383899054  1.0000
  C   C33       1.0  0.230074747119839  0.7795793246327961  0.15871224576908158  1.0000
  C   C34       1.0  0.7300747469332036  0.7204206756655213  0.658712245579  1.0000
  C   C35       1.0  0.7699252527167046  0.22042067575322086  0.8412877545958003  1.0000
  C   C36       1.0  0.2699252529033401  0.2795793241590796  0.34128775478588197  1.0000
  C   C37       1.0  0.06510188933538218  0.7939418687159481  0.20475755969646617  1.0000
  C   C38       1.0  0.5651018891487467  0.7060581310209534  0.7047575595063844  1.0000
  C   C39       1.0  0.934898110291347  0.2060581311086529  0.7952424399233703  1.0000
  C   C40       1.0  0.4348981104779824  0.29394186880364753  0.2952424401134521  1.0000
  C   C41       1.0  0.8907756931638908  0.8862415864554841  0.28279941529443103  1.0000
  C   C42       1.0  0.39077569357792785  0.6137584138428333  0.7827994154590676  1.0000
  C   C43       1.0  0.10922430646283822  0.11375841393053282  0.7172005843254055  1.0000
  C   C44       1.0  0.6092243062586158  0.3862415859817676  0.2172005849058141  1.0000
  C   C45       1.0  0.13711306237115148  0.03028886367869123  0.7024151923189108  1.0000
  C   C46       1.0  0.6371130619571145  0.46971113623360916  0.20241519215427417  1.0000
  C   C47       1.0  0.8628869374653921  0.9697111367073258  0.2975848080459709  1.0000
  C   C48       1.0  0.36288693787942916  0.5302888635909917  0.7975848082106076  1.0000
  C   C49       1.0  0.8970518464832693  0.9968321402516005  0.9998361733752509  1.0000
  C   C50       1.0  0.39705184646009006  0.5031678594853007  0.4998361728202874  1.0000
  C   C51       1.0  0.10294815335327445  0.0031678595730003332  0.00016382698963083046  1.0000
  C   C52       1.0  0.602948153166639  0.4968321403393002  0.5001638267995491  1.0000
  N   N1        1.0  0.3006810217852512  0.01826094682848239  0.6582997136524265  1.0000
  N   N2        1.0  0.8006810228978497  0.48173905308381804  0.15829971423745842  1.0000
  N   N3        1.0  0.6993189778414779  0.9817390529961185  0.34170028596741  1.0000
  N   N4        1.0  0.1993189769386938  0.5182609467407828  0.8417002861274233  1.0000
  N   N5        1.0  0.20822937262020344  0.8028972179432534  0.05205723771777852  1.0000
  N   N6        1.0  0.708229372433568  0.697102781793648  0.5520572375276968  1.0000
  N   N7        1.0  0.7917706270065257  0.19710278188134756  0.9479427619020581  1.0000
  N   N8        1.0  0.2917706271931611  0.30289721803095293  0.4479427620921398  1.0000
  N   N9        1.0  0.03172065766836683  0.8753891686674853  0.21997559798086522  1.0000
  N   N10       1.0  0.5317206587985525  0.6246108316308322  0.7199755977954068  1.0000
  N   N11       1.0  0.9682793421681768  0.12461083115711566  0.7800244023840166  1.0000
  N   N12       1.0  0.4682793423548123  0.3753891687551848  0.28002440257409833  1.0000
  O   O1        1.0  0.8450202071944494  0.9473188595519797  0.05530235889502896  1.0000
  O   O2        1.0  0.34502020760848634  0.5526811401849216  0.5553023590596656  1.0000
  O   O3        1.0  0.1549797924322797  0.05268114027262121  0.9446976407248077  1.0000
  O   O4        1.0  0.6549797922280572  0.44731885963967927  0.44469764130521616  1.0000
  O   O5        1.0  0.7985847408017129  0.04193232732189673  0.9432836723366124  1.0000
  O   O6        1.0  0.29858474098834836  0.4580676725904037  0.44328367252669426  1.0000
  O   O7        1.0  0.2014152588250162  0.9580676725027041  0.056716327283224  1.0000
  O   O8        1.0  0.7014152588481953  0.5419323277956133  0.5567163278381876  1.0000
  O   O9        1.0  0.4587039730507476  0.07238823584941532  0.857946262161883  1.0000
  O   O10       1.0  0.9587039726367105  0.42761176406288515  0.3579462619972463  1.0000
  O   O11       1.0  0.5412960265759815  0.9276117639751855  0.14205373745795355  1.0000
  O   O12       1.0  0.041296026990018525  0.5723882357617158  0.6420537376225902  1.0000
  O   O13       1.0  0.6689778450279011  0.06830428959702145  0.6651520794344453  1.0000
  O   O14       1.0  0.1689778438977154  0.43169571031527904  0.16515207961990366  1.0000
  O   O15       1.0  0.33102215591564915  0.9316957102275795  0.3348479201900146  1.0000
  O   O16       1.0  0.8310221559388282  0.568304289509322  0.8348479207449782  1.0000
  Br  Br1       1.0  0.2183328157963777  0.08358598905959476  0.4371717264195282  1.0000
  Br  Br2       1.0  0.7183328156097422  0.4164140108527057  0.9371717262294463  1.0000
  Br  Br3       1.0  0.7816671840401659  0.9164140107650062  0.5628282739453536  1.0000
  Br  Br4       1.0  0.28166718401698687  0.5835859889718952  0.06282827339039007  1.0000
  Br  Br5       1.0  0.6652281979370187  0.22039761671256142  0.5424261130180588  1.0000
  Br  Br6       1.0  0.16522819812365422  0.27960238319973907  0.042426113208140555  1.0000
  Br  Br7       1.0  0.334771803216346  0.7796023831120394  0.4575738873514463  1.0000
  Br  Br8       1.0  0.8347718030297103  0.7203976166248619  0.9575738871613645  1.0000
