data_image0
_chemical_formula_structural       H68C72N20O24
_chemical_formula_sum              "H68 C72 N20 O24"
_cell_length_a       14.493722587360217
_cell_length_b       4.566098806175567
_cell_length_c       26.231195810559477
_cell_angle_alpha    90.0
_cell_angle_beta     101.20328260831788
_cell_angle_gamma    90.0

_space_group_name_H-M_alt    "P 1"
_space_group_IT_number       1

loop_
  _space_group_symop_operation_xyz
  'x, y, z'

loop_
  _atom_site_type_symbol
  _atom_site_label
  _atom_site_symmetry_multiplicity
  _atom_site_fract_x
  _atom_site_fract_y
  _atom_site_fract_z
  _atom_site_occupancy
  H   H1        1.0  0.2989120924149494  0.5425181199867254  0.16046718594284398  1.0000
  H   H2        1.0  0.20108790758443895  0.04251811847291313  0.3395328142564423  1.0000
  H   H3        1.0  0.7010879075850756  0.4574818808508458  0.8395328140746378  1.0000
  H   H4        1.0  0.7989120924155859  0.9574818801746047  0.6604671857610394  1.0000
  H   H5        1.0  0.12304384057536942  0.8718417754376848  0.23494008348744186  1.0000
  H   H6        1.0  0.37695615942401894  0.37184177611392594  0.2650599167118444  1.0000
  H   H7        1.0  0.8769561594246554  0.12815822539988628  0.7650599165300398  1.0000
  H   H8        1.0  0.623043840576006  0.6281582247236451  0.7349400833056373  1.0000
  H   H9        1.0  0.13319692959220494  0.18013123344759588  0.1945442575672197  1.0000
  H   H10       1.0  0.36680307040843163  0.6801312327713548  0.3054557422509757  1.0000
  H   H11       1.0  0.86680307040782  0.8198687673899753  0.8054557424502619  1.0000
  H   H12       1.0  0.6331969295915935  0.3198687680662164  0.694544257766506  1.0000
  H   H13       1.0  0.9434159050590972  0.764511465515969  0.997625790672128  1.0000
  H   H14       1.0  0.5565840949415644  0.26451146400215686  0.502374209163549  1.0000
  H   H15       1.0  0.056584094940927795  0.23548853532160205  0.0023742093453535907  1.0000
  H   H16       1.0  0.4434159050584606  0.735488534645361  0.49762579085393266  1.0000
  H   H17       1.0  0.8115721834942388  0.4071265513321268  0.9778893235451865  1.0000
  H   H18       1.0  0.6884278165064228  0.9071265506558857  0.5221106762904905  1.0000
  H   H19       1.0  0.18842781650578616  0.5928734495054443  0.022110676472295115  1.0000
  H   H20       1.0  0.3115721834936022  0.09287345018168545  0.4778893237269911  1.0000
  H   H21       1.0  0.7532678570182721  0.14949931417970128  0.048084364370836394  1.0000
  H   H22       1.0  0.7467321425541562  0.6494993135034601  0.45191563573089905  1.0000
  H   H23       1.0  0.24673214298175286  0.8505006866578698  0.9519156356466453  1.0000
  H   H24       1.0  0.2532678574458689  0.350500687334111  0.5480843642865827  1.0000
  H   H25       1.0  0.828714528903274  0.2267933226936357  0.14090923840592054  1.0000
  H   H26       1.0  0.6712854713737584  0.7267933220173947  0.3590907613909078  1.0000
  H   H27       1.0  0.17128547109675105  0.7732066781439355  0.8590907616115611  1.0000
  H   H28       1.0  0.32871452862626666  0.2732066788201766  0.6409092386265739  1.0000
  H   H29       1.0  0.46598949360772013  0.7402689371128849  0.22400192155538884  1.0000
  H   H30       1.0  0.03401050639166831  0.240268937789126  0.2759980786438974  1.0000
  H   H31       1.0  0.5340105063923049  0.2597310615346329  0.7759980784620928  1.0000
  H   H32       1.0  0.9659894936083567  0.7597310630484451  0.7240019213735842  1.0000
  H   H33       1.0  0.701785451844832  0.529084875853453  0.21094551575778686  1.0000
  H   H34       1.0  0.7982145477275964  0.0290848765296941  0.28905448434394854  1.0000
  H   H35       1.0  0.2982145481551931  0.47091512498411814  0.7890544842596948  1.0000
  H   H36       1.0  0.20178545227242867  0.9709151243078772  0.7109455156735331  1.0000
  H   H37       1.0  0.6623144128092276  0.29741651848691586  0.2576885661248833  1.0000
  H   H38       1.0  0.8376855874665565  0.7974165178106748  0.24231143405303587  1.0000
  H   H39       1.0  0.33768558719079733  0.7025834823506553  0.7423114338925983  1.0000
  H   H40       1.0  0.1623144125334685  0.20258348083684305  0.7576885659644457  1.0000
  H   H41       1.0  0.6354633373704986  0.6793547690655749  0.255749226243985  1.0000
  H   H42       1.0  0.8645366622019296  0.17935476974181605  0.24425077385775043  1.0000
  H   H43       1.0  0.36453666262952633  0.3206452317719962  0.7442507737734967  1.0000
  H   H44       1.0  0.13546333779809538  0.8206452310957552  0.7557492261597312  1.0000
  H   H45       1.0  0.6720874133345818  0.6248387739970204  0.0927095014608494  1.0000
  H   H46       1.0  0.8279125869412024  0.12483877467326152  0.4072904987170698  1.0000
  H   H47       1.0  0.3279125866654432  0.37516122684055075  0.9072904985566322  1.0000
  H   H48       1.0  0.17208741305882255  0.8751612261643097  0.5927095013004119  1.0000
  H   H49       1.0  0.6298969712555152  0.8043713322700224  0.032060918777682385  1.0000
  H   H50       1.0  0.870103028316913  0.3043713329462635  0.467939081324053  1.0000
  H   H51       1.0  0.3701030287445096  0.19562866856754874  0.9679390812397993  1.0000
  H   H52       1.0  0.12989697168311207  0.6956286678913077  0.5320609186934286  1.0000
  H   H53       1.0  0.5671416839584889  0.4999434849969881  0.04925441893758152  1.0000
  H   H54       1.0  0.9328583156139394  0.9999434843207469  0.45074558116415386  1.0000
  H   H55       1.0  0.43285831604153613  0.5000565158405831  0.9507455810799  1.0000
  H   H56       1.0  0.0671416843860856  5.6516516824160365e-05  0.5492544188533278  1.0000
  H   H57       1.0  0.2907257156345267  0.15698478732666274  0.030026655097034602  1.0000
  H   H58       1.0  0.2092742843661099  0.6569847866504216  0.4699733447211608  1.0000
  H   H59       1.0  0.7092742843654984  0.8430152135109085  0.9699733449204471  1.0000
  H   H60       1.0  0.7907257156339151  0.34301521199709617  0.5300266552963209  1.0000
  H   H61       1.0  0.2731081742233709  0.2849838484090758  0.09167019149513275  1.0000
  H   H62       1.0  0.22689182577726563  0.7849838499228882  0.4083298083230626  1.0000
  H   H63       1.0  0.7268918257766541  0.7150161502384419  0.9083298085223488  1.0000
  H   H64       1.0  0.7731081742227595  0.21501615091468307  0.591670191694419  1.0000
  H   H65       1.0  0.2696866406081875  0.9040621798233764  0.07856304762164144  1.0000
  H   H66       1.0  0.23031335939244912  0.40406217830956415  0.4214369521965539  1.0000
  H   H67       1.0  0.7303133593918376  0.09593782101419478  0.9214369523958403  1.0000
  H   H68       1.0  0.7696866406075759  0.5959378203379536  0.5785630478209277  1.0000
  C   C1        1.0  0.22987160147742253  0.8336914818513087  0.19084925316620277  1.0000
  C   C2        1.0  0.2701283985219659  0.33369148252754977  0.3091507470330835  1.0000
  C   C3        1.0  0.7701283985226025  0.16630851679620917  0.8091507468512789  1.0000
  C   C4        1.0  0.7298716014780592  0.6663085183100214  0.6908492529843981  1.0000
  C   C5        1.0  0.1328857106683336  0.9402840525906299  0.19621974382481835  1.0000
  C   C6        1.0  0.36711428933105483  0.4402840510768177  0.3037802563744679  1.0000
  C   C7        1.0  0.8671142893316914  0.05971594824694116  0.8037802561926634  1.0000
  C   C8        1.0  0.6328857106689703  0.5597159475707001  0.6962197436430138  1.0000
  C   C9        1.0  0.04361841551469114  0.867291308861732  0.10472551741388769  1.0000
  C   C10       1.0  0.4563815844846973  0.3672913095379732  0.3952744827853986  1.0000
  C   C11       1.0  0.9563815844853338  0.13270868978578576  0.8952744826035939  1.0000
  C   C12       1.0  0.5436184155153277  0.6327086912995981  0.6047255172320831  1.0000
  C   C13       1.0  0.9626206731177129  0.6823002331413436  0.0805806921895755  1.0000
  C   C14       1.0  0.5373793271580712  0.18230023381758464  0.4194193079883437  1.0000
  C   C15       1.0  0.03737932688231203  0.3176997655061743  0.9194193078279063  1.0000
  C   C16       1.0  0.46262067284195374  0.8176997670199865  0.580580692029138  1.0000
  C   C17       1.0  0.9204380980389992  0.6446880969852613  0.028844422222089744  1.0000
  C   C18       1.0  0.5795619022380332  0.14468809547144904  0.4711555775747386  1.0000
  C   C19       1.0  0.07956190196102582  0.3553119038523099  0.971155577795392  1.0000
  C   C20       1.0  0.42043809776199187  0.8553119031760688  0.5288444224427431  1.0000
  C   C21       1.0  0.8452602824729262  0.44638671577656375  0.01807798290030001  1.0000
  C   C22       1.0  0.6547397171007503  0.9463867151003227  0.48192201682034447  1.0000
  C   C23       1.0  0.154739717528347  0.5536132850610075  0.9819220167360907  1.0000
  C   C24       1.0  0.34526028289927474  0.05361328573724851  0.5180779831971372  1.0000
  C   C25       1.0  0.8127886409750272  0.29826715053954395  0.057821014297612584  1.0000
  C   C26       1.0  0.6872113593007569  0.7982671498633029  0.44217898588030663  1.0000
  C   C27       1.0  0.18721135902499778  0.7017328502980272  0.9421789857198691  1.0000
  C   C28       1.0  0.3127886406992681  0.2017328487842149  0.557821014137175  1.0000
  C   C29       1.0  0.8549325827134839  0.34062641130245336  0.11009793428557559  1.0000
  C   C30       1.0  0.6450674168589443  0.8406264106262122  0.3899020658161599  1.0000
  C   C31       1.0  0.145067417286541  0.6593735895351178  0.8899020657319061  1.0000
  C   C32       1.0  0.3549325831410807  0.15937358802130555  0.6100979342013219  1.0000
  C   C33       1.0  0.930310534530885  0.5331437980946743  0.12036772222710124  1.0000
  C   C34       1.0  0.5696894657448992  0.03314379877091539  0.37963227795081794  1.0000
  C   C35       1.0  0.06968946546913997  0.4668562005528435  0.8796322777903803  1.0000
  C   C36       1.0  0.4303105342551259  0.9668561998766024  0.6203677220666637  1.0000
  C   C37       1.0  0.9896519290753014  0.6207566284300453  0.17066141492802886  1.0000
  C   C38       1.0  0.5103480712004828  0.12075662910628637  0.3293385852498903  1.0000
  C   C39       1.0  0.010348070924723507  0.3792433702174725  0.8293385850894528  1.0000
  C   C40       1.0  0.48965192879954234  0.8792433717312846  0.6706614147675913  1.0000
  C   C41       1.0  0.4745319927196912  0.5692315257139579  0.19652636078605823  1.0000
  C   C42       1.0  0.02546800727969727  0.06923152420014567  0.303473639413228  1.0000
  C   C43       1.0  0.5254680072803338  0.43076847512361327  0.8034736392314235  1.0000
  C   C44       1.0  0.9745319927203279  0.9307684744473722  0.6965263606042537  1.0000
  C   C45       1.0  0.5412815008046082  0.2337992529982393  0.15539132675062722  1.0000
  C   C46       1.0  0.95871849876782  0.7337992523219982  0.3446086733511082  1.0000
  C   C47       1.0  0.45871849919541674  0.7662007478393318  0.8446086732668544  1.0000
  C   C48       1.0  0.04128150123220501  0.2662007463255196  0.6553913266663736  1.0000
  C   C49       1.0  0.6024664047107122  0.04047919194171139  0.1350343122663658  1.0000
  C   C50       1.0  0.8975335955663201  0.5404791912654703  0.36496568753046243  1.0000
  C   C51       1.0  0.39753359528931276  0.9595208088958597  0.8649656877511159  1.0000
  C   C52       1.0  0.10246640443370492  0.4595208095721009  0.6350343124870191  1.0000
  C   C53       1.0  0.45764689087208604  0.9033678036973689  0.0690812870243976  1.0000
  C   C54       1.0  0.042353109127302356  0.4033678043736099  0.4309187131748886  1.0000
  C   C55       1.0  0.542353109127939  0.09663219714020234  0.9309187129930839  1.0000
  C   C56       1.0  0.9576468908727226  0.5966321964639613  0.569081286842593  1.0000
  C   C57       1.0  0.4461374520268789  0.2588976389212516  0.13387343385303593  1.0000
  C   C58       1.0  0.0538625479737577  0.7588976382450104  0.36612656596515947  1.0000
  C   C59       1.0  0.553862547973146  0.7411023619163196  0.8661265661644457  1.0000
  C   C60       1.0  0.9461374520262673  0.24110236259256068  0.6338734340523221  1.0000
  C   C61       1.0  0.6452898994312216  0.48797643997244844  0.23226345646672522  1.0000
  C   C62       1.0  0.8547101008445626  0.9879764392962073  0.26773654371119393  1.0000
  C   C63       1.0  0.3547101005688034  0.5120235608651228  0.7677365435507564  1.0000
  C   C64       1.0  0.14528989915546237  0.01202355935131051  0.7322634563062878  1.0000
  C   C65       1.0  0.6092942118818376  0.6892072803470118  0.06482083102670216  1.0000
  C   C66       1.0  0.8907057876918387  0.18920728102325288  0.43517916869394235  1.0000
  C   C67       1.0  0.3907057881181874  0.31079271830050603  0.9351791689907795  1.0000
  C   C68       1.0  0.10929421230818619  0.8107927198143182  0.5648208313235393  1.0000
  C   C69       1.0  0.303442328796978  0.11088798589185231  0.07171414589394319  1.0000
  C   C70       1.0  0.1965576712036585  0.6108879852156112  0.42828585392425217  1.0000
  C   C71       1.0  0.6965576712030469  0.8891120149457188  0.9282858541235386  1.0000
  C   C72       1.0  0.8034423287963665  0.38911201562195996  0.5717141460932295  1.0000
  N   N1        1.0  0.05608604938671682  0.8188745291588928  0.1586994081564797  1.0000
  N   N2        1.0  0.44391395061391975  0.3188745298351338  0.3413005916617157  1.0000
  N   N3        1.0  0.9439139506145564  0.18112546948862504  0.841300591479911  1.0000
  N   N4        1.0  0.5560860493861053  0.6811254710024373  0.658699408355766  1.0000
  N   N5        1.0  0.5575576817150458  0.4369791510646694  0.19562452895764243  1.0000
  N   N6        1.0  0.9424423185607385  0.9369791525784817  0.30437547122027675  1.0000
  N   N7        1.0  0.4424423182849792  0.5630208475828483  0.8043754710598393  1.0000
  N   N8        1.0  0.057557681439286586  0.06302084825908946  0.6956245287972049  1.0000
  N   N9        1.0  0.5537781017675272  0.8842992172089993  0.09115338022223964  1.0000
  N   N10       1.0  0.9462218985095051  0.38429921788524035  0.4088466195745887  1.0000
  N   N11       1.0  0.44622189823249775  0.1157007814385186  0.9088466197952421  1.0000
  N   N12       1.0  0.05377810149051986  0.6157007829523308  0.591153380442893  1.0000
  N   N13       1.0  0.4041564475529329  0.09602305570063512  0.09220407215438892  1.0000
  N   N14       1.0  0.09584355244770365  0.596023055024394  0.4077959276638065  1.0000
  N   N15       1.0  0.595843552447092  0.9039769451369362  0.9077959278630927  1.0000
  N   N16       1.0  0.9041564475523214  0.4039769458131771  0.5922040723536752  1.0000
  N   N17       1.0  0.4049678670263569  0.46625980960389674  0.1593413859094829  1.0000
  N   N18       1.0  0.09503213297427969  0.966259811117709  0.34065861390871244  1.0000
  N   N19       1.0  0.5950321329736681  0.5337401890436211  0.8406586141079987  1.0000
  N   N20       1.0  0.9049678670257453  0.033740189719862215  0.6593413861087692  1.0000
  O   O1        1.0  0.22918163989669604  0.5995355501938608  0.16074183293567684  1.0000
  O   O2        1.0  0.27081836010269233  0.09953555087010196  0.3392581672636094  1.0000
  O   O3        1.0  0.770818360103329  0.400464448453657  0.8392581670818049  1.0000
  O   O4        1.0  0.7291816398973326  0.9004644499674692  0.6607418327538722  1.0000
  O   O5        1.0  0.3012690169967386  0.9573050355564139  0.21383821154224508  1.0000
  O   O6        1.0  0.19873098300264982  0.4573050362326549  0.2861617886570412  1.0000
  O   O7        1.0  0.6987309830032864  0.04269496309110403  0.7861617884752367  1.0000
  O   O8        1.0  0.8012690169973751  0.5426949646049163  0.7138382113604405  1.0000
  O   O9        1.0  0.9838105028490823  0.5424814913443986  0.21479383459776233  1.0000
  O   O10       1.0  0.516189497426702  0.04248149202063974  0.2852061655801568  1.0000
  O   O11       1.0  0.01618949715094277  0.4575185094931726  0.7852061654197193  1.0000
  O   O12       1.0  0.4838105025733231  0.9575185088169313  0.7147938344373248  1.0000
  O   O13       1.0  0.09240288828970783  0.032550977608933745  0.08435548559266477  1.0000
  O   O14       1.0  0.40759711171092877  0.5325509769326926  0.4156445142255306  1.0000
  O   O15       1.0  0.9075971117103172  0.9674490232286374  0.9156445144248169  1.0000
  O   O16       1.0  0.5924028882890964  0.4674490217148251  0.5843554857919511  1.0000
  O   O17       1.0  0.6879825179393163  0.004081510451502792  0.15163932979729908  1.0000
  O   O18       1.0  0.8120174816331118  0.5040815097752617  0.3483606703044364  1.0000
  O   O19       1.0  0.3120174820607086  0.9959184903860683  0.8483606702201826  1.0000
  O   O20       1.0  0.1879825183669131  0.49591849106230945  0.6516393297130453  1.0000
  O   O21       1.0  0.4213231161081484  0.7556912753033678  0.030922206131866983  1.0000
  O   O22       1.0  0.07867688389248821  0.2556912737895556  0.4690777936863284  1.0000
  O   O23       1.0  0.5786768838918767  0.24430872553420327  0.9690777938856145  1.0000
  O   O24       1.0  0.9213231161075367  0.7443087248579622  0.5309222063311533  1.0000
