data_image0
_chemical_formula_structural       H30B2C32N2O8
_chemical_formula_sum              "H30 B2 C32 N2 O8"
_cell_length_a       7.460961060046317
_cell_length_b       9.16878916606284
_cell_length_c       10.437561600514655
_cell_angle_alpha    81.71386439934872
_cell_angle_beta     81.88695534037413
_cell_angle_gamma    77.59684862562031

_space_group_name_H-M_alt    "P 1"
_space_group_IT_number       1

loop_
  _space_group_symop_operation_xyz
  'x, y, z'

loop_
  _atom_site_type_symbol
  _atom_site_label
  _atom_site_symmetry_multiplicity
  _atom_site_fract_x
  _atom_site_fract_y
  _atom_site_fract_z
  _atom_site_occupancy
  H   H1        1.0  0.6753242934930994  0.5445032703466788  0.4853361953533953  1.0000
  H   H2        1.0  0.3246757057559544  0.45549672921310763  0.5146638052829394  1.0000
  H   H3        1.0  0.7931209426898866  0.44369148862701674  0.5961877502934394  1.0000
  H   H4        1.0  0.20687905789868283  0.5563085109389362  0.4038122503385212  1.0000
  H   H5        1.0  0.5099596283528949  0.4525216811520729  0.641669971395494  1.0000
  H   H6        1.0  0.4900403723878117  0.5474783185436867  0.35833002826194105  1.0000
  H   H7        1.0  0.08142046047898975  0.36442438519245524  0.7525088058089642  1.0000
  H   H8        1.0  0.9185795401095798  0.6355756143734976  0.24749119482299653  1.0000
  H   H9        1.0  0.6886407759338067  0.3691798311647038  0.8189918289120806  1.0000
  H   H10       1.0  0.3113592248068998  0.6308201685310557  0.18100817074535452  1.0000
  H   H11       1.0  0.8425110541990616  0.4374416316389925  0.9878846024062062  1.0000
  H   H12       1.0  0.15748894490102483  0.5625583691676035  0.012115397253397548  1.0000
  H   H13       1.0  0.07928735728117381  0.12474005346661628  0.7992113058604311  1.0000
  H   H14       1.0  0.9207126433073958  0.8752599460993365  0.2007886947715297  1.0000
  H   H15       1.0  0.25719540956228226  0.8749462332265552  0.8846463733028713  1.0000
  H   H16       1.0  0.7428045910262872  0.12505376633939774  0.11535362732908941  1.0000
  H   H17       1.0  0.4433980158427658  0.7029243879811375  0.7293352809719359  1.0000
  H   H18       1.0  0.5566019848979408  0.297075611714622  0.2706647186854991  1.0000
  H   H19       1.0  0.4373920060657933  0.7701482482059828  0.49360035834867216  1.0000
  H   H20       1.0  0.5626079945227761  0.22985175135997002  0.5063996422832886  1.0000
  H   H21       1.0  0.4113439112195555  0.8261882540057925  0.3011893204349747  1.0000
  H   H22       1.0  0.5886560880294984  0.17381174555399392  0.69881068020136  1.0000
  H   H23       1.0  0.39118614277308605  0.9164211615280174  0.06929800397346533  1.0000
  H   H24       1.0  0.6088138563270004  0.08357883927857863  0.9307019956861383  1.0000
  H   H25       1.0  0.22261565080203682  0.1777772013052307  0.0005450883961033592  1.0000
  H   H26       1.0  0.7773843482980495  0.8222227995013653  0.9994549112635004  1.0000
  H   H27       1.0  0.06824070279269052  0.34327661374565654  0.16793979853158536  1.0000
  H   H28       1.0  0.9317592976469113  0.6567233870671059  0.8320602011236445  1.0000
  H   H29       1.0  0.9852349622890391  0.3863986019304437  0.3985097504755705  1.0000
  H   H30       1.0  0.014765038150562999  0.6136013988823186  0.6014902491796592  1.0000
  B   B1        1.0  0.3082638359254128  0.42087756786487596  0.7936887245705259  1.0000
  B   B2        1.0  0.6917361648152937  0.5791224318308834  0.20631127508690916  1.0000
  C   C1        1.0  0.4102132738679491  0.4610890656144218  0.9016596524373104  1.0000
  C   C2        1.0  0.5897867253811047  0.5389109339453646  0.09834034819902439  1.0000
  C   C3        1.0  0.6040557827314168  0.4268446415884384  0.8979908103130572  1.0000
  C   C4        1.0  0.395944216517637  0.573155357971348  0.10200919032327752  1.0000
  C   C5        1.0  0.6919324205575019  0.4649930661235302  0.9941118077743832  1.0000
  C   C6        1.0  0.3080675786915518  0.5350069334362563  0.005888192861951504  1.0000
  C   C7        1.0  0.1598442927301536  0.08652860960970093  0.5986301933328695  1.0000
  C   C8        1.0  0.8401557066710372  0.9134713900798922  0.40136980632893954  1.0000
  C   C9        1.0  0.1589633670271205  0.04647930347264282  0.7337112628036225  1.0000
  C   C10       1.0  0.8410366323740704  0.9535206962169501  0.26628873685818644  1.0000
  C   C11       1.0  0.2582083346016804  0.908031935822795  0.7801084403528464  1.0000
  C   C12       1.0  0.7417916644984062  0.09196806498380088  0.21989155930675758  1.0000
  C   C13       1.0  0.36031629967895773  0.8094979580868628  0.6928291298741328  1.0000
  C   C14       1.0  0.6396837010617488  0.19050204160889683  0.30717086978330205  1.0000
  C   C15       1.0  0.3574449873998183  0.8477042464299105  0.5598825575670828  1.0000
  C   C16       1.0  0.6425550131887512  0.1522957531360425  0.4401174430648778  1.0000
  C   C17       1.0  0.25606604579360054  0.986878793415047  0.5081767866916141  1.0000
  C   C18       1.0  0.743933954947106  0.013121206280712323  0.4918232129658209  1.0000
  C   C19       1.0  0.24888161530536304  0.03138707837932334  0.369970071672171  1.0000
  C   C20       1.0  0.7511183854353435  0.9686129213164363  0.6300299279852639  1.0000
  C   C21       1.0  0.3346130073171957  0.9386855679256827  0.2732779598276767  1.0000
  C   C22       1.0  0.6653869920839952  0.061314431763910444  0.7267220398341322  1.0000
  C   C23       1.0  0.32380566521227566  0.9903279962775632  0.1424642790819563  1.0000
  C   C24       1.0  0.676194334036778  0.009672003282223387  0.8575357215543785  1.0000
  C   C25       1.0  0.22913667101521337  0.13664340154668722  0.10338186043029919  1.0000
  C   C26       1.0  0.7708633297254933  0.8633565981490722  0.8966181392271357  1.0000
  C   C27       1.0  0.142434937674716  0.22974337119628274  0.19621737572056328  1.0000
  C   C28       1.0  0.8575650630659905  0.7702566284994767  0.8037826239368715  1.0000
  C   C29       1.0  0.14972657973077427  0.17795144358918638  0.32995776132302596  1.0000
  C   C30       1.0  0.8502734210099322  0.8220485561065732  0.670042238334409  1.0000
  C   C31       1.0  0.05958420344419785  0.27271073132218154  0.424974743395945  1.0000
  C   C32       1.0  0.9404157972965086  0.7272892683735779  0.57502525626149  1.0000
  N   N1        1.0  0.06274174649173833  0.22948072114668738  0.5517547958080395  1.0000
  N   N2        1.0  0.9372582527573156  0.7705192784130991  0.4482452048282951  1.0000
  O   O1        1.0  0.6774416063012679  0.5196632772002857  0.5810656116975972  1.0000
  O   O2        1.0  0.3225583942873015  0.48033672236566716  0.4189343889343635  1.0000
  O   O3        1.0  0.39030441296591545  0.41138882114700853  0.6674414696315695  1.0000
  O   O4        1.0  0.609695587622654  0.5886111784189443  0.3325585310003913  1.0000
  O   O5        1.0  0.13306859096413634  0.3938958709940046  0.8264568391970945  1.0000
  O   O6        1.0  0.8669314084370545  0.6061041286955884  0.17354316046471463  1.0000
  O   O7        1.0  0.97478754500766  0.3212867494648891  0.6380155452927613  1.0000
  O   O8        1.0  0.025212454241394  0.6787132500948972  0.36198445534357343  1.0000
