data_image0
_chemical_formula_structural       H28B2C30N4O8
_chemical_formula_sum              "H28 B2 C30 N4 O8"
_cell_length_a       7.7725199406034635
_cell_length_b       8.948816429893435
_cell_length_c       10.572230099007244
_cell_angle_alpha    73.574339076953
_cell_angle_beta     83.02119904376349
_cell_angle_gamma    81.22178553056891

_space_group_name_H-M_alt    "P 1"
_space_group_IT_number       1

loop_
  _space_group_symop_operation_xyz
  'x, y, z'

loop_
  _atom_site_type_symbol
  _atom_site_label
  _atom_site_symmetry_multiplicity
  _atom_site_fract_x
  _atom_site_fract_y
  _atom_site_fract_z
  _atom_site_occupancy
  H   H1        1.0  0.46291868894177457  0.09313806785386522  0.21426234733634822  1.0000
  H   H2        1.0  0.537081310137516  0.9068619320689096  0.7857376530348305  1.0000
  H   H3        1.0  0.19621204163347247  0.17098349844247238  0.34156228934576344  1.0000
  H   H4        1.0  0.803787957445818  0.8290165014803026  0.6584377110254153  1.0000
  H   H5        1.0  0.3235662999228457  0.947033104815812  0.9805143951492342  1.0000
  H   H6        1.0  0.6764337005665164  0.05296689539614426  0.019485604242286163  1.0000
  H   H7        1.0  0.15274622855871184  0.8520219265231785  0.8437247376202975  1.0000
  H   H8        1.0  0.8472537719306503  0.1479780736887778  0.15627526177122258  1.0000
  H   H9        1.0  0.09637257077444579  0.11053776881002915  0.6839700521122112  1.0000
  H   H10       1.0  0.9036274295925024  0.8894622310966191  0.3160299482687217  1.0000
  H   H11       1.0  0.9615145135159521  0.2897274897930602  0.8231417988563512  1.0000
  H   H12       1.0  0.038485486850996314  0.7102725101135883  0.17685820152458165  1.0000
  H   H13       1.0  0.020232169004806136  0.575264952974675  0.7459743853932392  1.0000
  H   H14       1.0  0.9797678313621422  0.42473504693197356  0.2540256149876936  1.0000
  H   H15       1.0  0.15766545473599022  0.7789780553442578  0.5905584622414538  1.0000
  H   H16       1.0  0.8423345457533719  0.22102194486769836  0.40944153715006637  1.0000
  H   H17       1.0  0.3427198751349841  0.8763976219873797  0.384740326397209  1.0000
  H   H18       1.0  0.6572801239443065  0.12360237793539522  0.6152596739739696  1.0000
  H   H19       1.0  0.5077698354394674  0.8327620998873806  0.18335144290614533  1.0000
  H   H20       1.0  0.4922301650498947  0.16723790032457567  0.8166485564853748  1.0000
  H   H21       1.0  0.6308798508035659  0.6506054230096512  0.04472359898728536  1.0000
  H   H22       1.0  0.3691201496857963  0.34939457720230505  0.9552764004042348  1.0000
  H   H23       1.0  0.5768277365641692  0.36666823926064146  0.12958496773084854  1.0000
  H   H24       1.0  0.4231722626375351  0.6333317609674413  0.8704150316509174  1.0000
  H   H25       1.0  0.5159883484474248  0.1714179967639512  0.3619313459072609  1.0000
  H   H26       1.0  0.4840116519195235  0.8285820031426973  0.638068654473672  1.0000
  H   H27       1.0  0.6251484462318878  0.9984563955461793  0.39928352957120317  1.0000
  H   H28       1.0  0.37485155284740274  0.001543604376595556  0.6007164707999755  1.0000
  B   B1        1.0  0.21137058264950365  0.10462591611192738  0.17129574492413094  1.0000
  B   B2        1.0  0.7886294178398584  0.8953740841000289  0.8287042544673894  1.0000
  C   C1        1.0  0.0992923781330863  0.055867256517268156  0.07840221220969004  1.0000
  C   C2        1.0  0.9007076222338619  0.9441327433893805  0.9215977881712428  1.0000
  C   C3        1.0  0.18134391533920796  0.9700312445662057  0.9897864454497352  1.0000
  C   C4        1.0  0.8186560850277403  0.02996875534044273  0.010213554931197884  1.0000
  C   C5        1.0  0.0842933435634025  0.9150140062357287  0.9134593068062135  1.0000
  C   C6        1.0  0.9157066569259597  0.08498599397622754  0.0865406925853067  1.0000
  C   C7        1.0  0.11655288273451986  0.23341001495862984  0.6583511113664571  1.0000
  C   C8        1.0  0.8834471176324286  0.7665899849480187  0.3416488890144758  1.0000
  C   C9        1.0  0.043046499335244945  0.33554887091388413  0.7332133639664944  1.0000
  C   C10       1.0  0.9569535011541173  0.6644511292980722  0.26678663542502584  1.0000
  C   C11       1.0  0.07596513236018555  0.4900063899004892  0.6914884783172621  1.0000
  C   C12       1.0  0.9240348668415187  0.5099936103275935  0.30851152106450386  1.0000
  C   C13       1.0  0.18187012385987203  0.5411630392463997  0.5733706875609944  1.0000
  C   C14       1.0  0.8181298765070764  0.4588369606602487  0.42662931281993854  1.0000
  C   C15       1.0  0.21514162856067587  0.7013179028042532  0.5296432924308198  1.0000
  C   C16       1.0  0.7848583719286863  0.2986820974077029  0.4703567069607004  1.0000
  C   C17       1.0  0.3164729783534184  0.7546789671316775  0.41611884550411826  1.0000
  C   C18       1.0  0.6835270220135299  0.24532103277497094  0.5838811548768147  1.0000
  C   C19       1.0  0.3892517908885291  0.6526361812417459  0.33608833685822853  1.0000
  C   C20       1.0  0.610748209600833  0.34736381897021035  0.6639116625332916  1.0000
  C   C21       1.0  0.4883025804806555  0.709200490891943  0.21534730388098552  1.0000
  C   C22       1.0  0.5116974200087068  0.29079950932001314  0.7846526955105347  1.0000
  C   C23       1.0  0.5555026546992271  0.608724314079034  0.1387365987474186  1.0000
  C   C24       1.0  0.4444973457901351  0.3912756861329221  0.8612634006441015  1.0000
  C   C25       1.0  0.5234790336724038  0.451399669966374  0.1855759476925063  1.0000
  C   C26       1.0  0.47652096681695827  0.5486003302455823  0.814424051699014  1.0000
  C   C27       1.0  0.3618644926172499  0.4905866982074651  0.37500499908976526  1.0000
  C   C28       1.0  0.6381355077496985  0.5094133016991833  0.6249950012911677  1.0000
  C   C29       1.0  0.2568288489056059  0.434570077295345  0.49769846336826584  1.0000
  C   C30       1.0  0.7431711515837562  0.5654299229166113  0.5023015360232543  1.0000
  N   N1        1.0  0.22224790886882706  0.27940237277882174  0.5463817925568334  1.0000
  N   N2        1.0  0.777752091620535  0.7205976274331345  0.4536182068346868  1.0000
  N   N3        1.0  0.4309506335275386  0.3939843710641841  0.2986169813697024  1.0000
  N   N4        1.0  0.5690493668394098  0.6060156288424643  0.7013830190112307  1.0000
  O   O1        1.0  0.3888932425060246  0.08890327018392288  0.14360682056651825  1.0000
  O   O2        1.0  0.6111067579833376  0.9110967300280333  0.856393178825002  1.0000
  O   O3        1.0  0.12400950353930576  0.15358402715110017  0.276851596971527  1.0000
  O   O4        1.0  0.8759904955399848  0.8464159727716749  0.7231484033996518  1.0000
  O   O5        1.0  0.29100867149589604  0.17005824245508716  0.48684276477917743  1.0000
  O   O6        1.0  0.7089913289934662  0.8299417577568691  0.5131572346123427  1.0000
  O   O7        1.0  0.589432143041721  0.09047894424431453  0.3250738857145239  1.0000
  O   O8        1.0  0.4105678561599833  0.9095210559837682  0.6749261136672421  1.0000
