data_image0
_chemical_formula_structural       H50C46N4O12Cl2
_chemical_formula_sum              "H50 C46 N4 O12 Cl2"
_cell_length_a       7.296390610989516
_cell_length_b       9.038548920245837
_cell_length_c       17.23933941758892
_cell_angle_alpha    104.75677506436828
_cell_angle_beta     99.37655421455104
_cell_angle_gamma    91.8010373717282

_space_group_name_H-M_alt    "P 1"
_space_group_IT_number       1

loop_
  _space_group_symop_operation_xyz
  'x, y, z'

loop_
  _atom_site_type_symbol
  _atom_site_label
  _atom_site_symmetry_multiplicity
  _atom_site_fract_x
  _atom_site_fract_y
  _atom_site_fract_z
  _atom_site_occupancy
  H   H1        1.0  0.46142525000356194  0.6134983970056854  0.7004306447002706  1.0000
  H   H2        1.0  0.5385747500667651  0.38650160280847484  0.29956935492739095  1.0000
  H   H3        1.0  0.40486113123763945  0.6867834880486755  0.843365428990201  1.0000
  H   H4        1.0  0.5951388688326876  0.3132165117654847  0.15663457063746059  1.0000
  H   H5        1.0  0.23625272864495464  0.20822735347790114  0.8136842222808027  1.0000
  H   H6        1.0  0.7637472716689752  0.7917726466395015  0.18631577795631749  1.0000
  H   H7        1.0  0.30853983517634076  0.15387917297756482  0.6741038683402687  1.0000
  H   H8        1.0  0.6914601648939864  0.8461208268365954  0.3258961312873928  1.0000
  H   H9        1.0  0.31483939779827774  0.6202736722927233  0.9565112330567  1.0000
  H   H10       1.0  0.6851606011448921  0.3797263278307129  0.043488767179168324  1.0000
  H   H11       1.0  0.2041528325874847  0.27778514564253387  0.9360188775406411  1.0000
  H   H12       1.0  0.7958471677264454  0.7222148544748689  0.06398112269647932  1.0000
  H   H13       1.0  0.26928342360418683  0.6868609772433314  0.07695671431589232  1.0000
  H   H14       1.0  0.7307165767097431  0.3131390228740714  0.923043285921228  1.0000
  H   H15       1.0  0.22402395301362746  0.7420547670944039  0.21917885572728385  1.0000
  H   H16       1.0  0.7759760473003025  0.25794523302299893  0.7808211445098364  1.0000
  H   H17       1.0  0.07843280268041466  0.26161785923240594  0.18926254205680262  1.0000
  H   H18       1.0  0.9215671973899124  0.7383821405817542  0.8107374575708589  1.0000
  H   H19       1.0  0.12226485739399086  0.20681540633114356  0.04643148859572693  1.0000
  H   H20       1.0  0.877735141549179  0.7931845937922927  0.9535685116401414  1.0000
  H   H21       1.0  0.09810239125443168  0.4896486036885888  0.39625955586932493  1.0000
  H   H22       1.0  0.9018976090594981  0.5103513964288139  0.6037404443677954  1.0000
  H   H23       1.0  0.5335193840558417  0.42369712434161766  0.5957147929321721  1.0000
  H   H24       1.0  0.46648061464372553  0.5763028754785761  0.4042852066942376  1.0000
  H   H25       1.0  0.2731351117811807  0.31732530338816045  0.4775634616776924  1.0000
  H   H26       1.0  0.7268648871619892  0.6826746967352758  0.522436538558176  1.0000
  H   H27       1.0  0.19952026737191944  0.34680408563284015  0.32640604198603557  1.0000
  H   H28       1.0  0.8004797326984077  0.65319591418132  0.673593957641626  1.0000
  H   H29       1.0  0.9551915539054672  0.37146459615874283  0.3053665760271358  1.0000
  H   H30       1.0  0.044808445037702725  0.6285354039646935  0.6946334242087326  1.0000
  H   H31       1.0  0.4693767960685689  0.22772058403842557  0.5852803681268023  1.0000
  H   H32       1.0  0.5306232028746011  0.7722794160850108  0.41471963210906626  1.0000
  H   H33       1.0  0.20196903069118757  0.47047432841130965  0.5508161198402344  1.0000
  H   H34       1.0  0.7980309693791394  0.5295256714028506  0.44918387978742713  1.0000
  H   H35       1.0  0.12939684990764103  0.2770530431242144  0.5448721543516745  1.0000
  H   H36       1.0  0.870603150406289  0.7229469569931884  0.4551278458854458  1.0000
  H   H37       1.0  0.9672518906274378  0.9726933828382363  0.5780350832033712  1.0000
  H   H38       1.0  0.03274810968649199  0.027306617279166525  0.4219649170337491  1.0000
  H   H39       1.0  0.8896885520528385  0.16053721806384838  0.6148034908453895  1.0000
  H   H40       1.0  0.11031144689033139  0.8394627820595878  0.3851965093904788  1.0000
  H   H41       1.0  0.7229711869297235  0.001613242746441067  0.5685254610087868  1.0000
  H   H42       1.0  0.27702881338420626  0.9983867573709617  0.4314745392283335  1.0000
  H   H43       1.0  0.5186952654228935  0.97338565766847  0.7890216857326752  1.0000
  H   H44       1.0  0.48130473489103637  0.02661434244893266  0.21097831450444512  1.0000
  H   H45       1.0  0.19242212410240317  0.9343038945269121  0.8066997249705053  1.0000
  H   H46       1.0  0.8075778748407668  0.06569610559652418  0.19330027526536317  1.0000
  H   H47       1.0  0.11693336707820554  0.945367433864833  0.943532108316297  1.0000
  H   H48       1.0  0.8830666316213615  0.0546325659553607  0.05646789131011274  1.0000
  H   H49       1.0  0.8257939484353823  0.0166655448640522  0.8516907144700264  1.0000
  H   H50       1.0  0.1742060502641848  0.9833344549561414  0.14830928515638322  1.0000
  C   C1        1.0  0.41403218390329694  0.5294387876570856  0.7296524325421252  1.0000
  C   C2        1.0  0.5859678161670302  0.4705612121570746  0.2703475670855364  1.0000
  C   C3        1.0  0.37989373669679477  0.5674338733993509  0.8081849816559143  1.0000
  C   C4        1.0  0.6201062633735324  0.4325661264148092  0.1918150179717471  1.0000
  C   C5        1.0  0.315754710509  0.4544085741052809  0.8429804186448548  1.0000
  C   C6        1.0  0.6842452898049298  0.5455914260121218  0.1570195815922654  1.0000
  C   C7        1.0  0.28612057973428  0.30254877639772126  0.7921801362467655  1.0000
  C   C8        1.0  0.7138794203360471  0.6974512234164391  0.207819863380896  1.0000
  C   C9        1.0  0.32411979901586774  0.26958117031159434  0.7144013992039746  1.0000
  C   C10       1.0  0.6758802010544593  0.7304188295025659  0.2855986004236869  1.0000
  C   C11       1.0  0.2869324166916718  0.4981824870137923  0.9260278304348675  1.0000
  C   C12       1.0  0.713067583622258  0.5018175131036104  0.07397216980225284  1.0000
  C   C13       1.0  0.23029004963584146  0.4000629209285155  0.9670635899774054  1.0000
  C   C14       1.0  0.7697099506780883  0.5999370791888873  0.0329364102597149  1.0000
  C   C15       1.0  0.20208404334280247  0.44061322704967876  0.05055948493263074  1.0000
  C   C16       1.0  0.7979159556003675  0.5593867730737577  0.9494405153032378  1.0000
  C   C17       1.0  0.22828544045433802  0.5926947208440426  0.10078309936561129  1.0000
  C   C18       1.0  0.7717145584888319  0.40730527927939364  0.8992169008702571  1.0000
  C   C19       1.0  0.20254742680169652  0.625012240792887  0.18074631496689061  1.0000
  C   C20       1.0  0.7974525735122333  0.3749877593245158  0.8192536852702297  1.0000
  C   C21       1.0  0.14995993357169535  0.5064124329117424  0.2139756423589955  1.0000
  C   C22       1.0  0.8500400667422345  0.4935875672056603  0.7860243578781247  1.0000
  C   C23       1.0  0.12004012648743283  0.354947456255126  0.1650723006484418  1.0000
  C   C24       1.0  0.8799598735828943  0.6450525435590342  0.8349276989792197  1.0000
  C   C25       1.0  0.14569094264428434  0.3243594927787978  0.08444726777920815  1.0000
  C   C26       1.0  0.8543090560552827  0.6756405070413959  0.9155527318472014  1.0000
  C   C27       1.0  0.09349849839048595  0.4308121387906813  0.33207789749619704  1.0000
  C   C28       1.0  0.9065015019234438  0.5691878613267214  0.6679221027409231  1.0000
  C   C29       1.0  0.42085990590704164  0.34344063562587457  0.5984915092956837  1.0000
  C   C30       1.0  0.5791400927925254  0.6565593641943192  0.40150849033072594  1.0000
  C   C31       1.0  0.2448015473337946  0.3527545092992263  0.5398517239148116  1.0000
  C   C32       1.0  0.7551984527365324  0.647245490514934  0.46014827571284994  1.0000
  C   C33       1.0  0.8612612614899732  0.008112342183777373  0.6855323188749337  1.0000
  C   C34       1.0  0.1387387388239567  0.9918876579336254  0.31446768136218656  1.0000
  C   C35       1.0  0.8604800485145508  0.0370970475029682  0.60707969103709  1.0000
  C   C36       1.0  0.13951995179937915  0.9629029526144347  0.3929203092000304  1.0000
  C   C37       1.0  0.5948340963721188  0.012258501838007736  0.9955455112432755  1.0000
  C   C38       1.0  0.4051659036982082  0.9877414979761525  0.004454488384386073  1.0000
  C   C39       1.0  0.6320218606151602  0.007988879443584368  0.9160767473550561  1.0000
  C   C40       1.0  0.36797813969876964  0.9920111206738186  0.08392325288206416  1.0000
  C   C41       1.0  0.48829740541253774  0.9793960110956238  0.8495308001859214  1.0000
  C   C42       1.0  0.5117025946577893  0.020603988718536408  0.15046919944174011  1.0000
  C   C43       1.0  0.3026596323609431  0.9567534062280504  0.8599937798646291  1.0000
  C   C44       1.0  0.6973403679529868  0.04324659388935248  0.14000622037249127  1.0000
  C   C45       1.0  0.26033591799641614  0.9611855596652255  0.9357302596793505  1.0000
  C   C46       1.0  0.7396640823175138  0.038814440452177475  0.06426974055776975  1.0000
  N   N1        1.0  0.3882982074195738  0.38173943990218384  0.6836451220508952  1.0000
  N   N2        1.0  0.6117017926507532  0.6182605599119764  0.31635487757676634  1.0000
  N   N3        1.0  0.8613809494491436  0.9880728470064039  0.7495838599800669  1.0000
  N   N4        1.0  0.13861905086478638  0.011927153110999015  0.25041614025705344  1.0000
  O   O1        1.0  0.7914813702559798  0.2696347837739035  0.48174388873173396  1.0000
  O   O2        1.0  0.20851862981434752  0.7303652160402568  0.5182561108959276  1.0000
  O   O3        1.0  0.7649878277193665  0.14111618812650742  0.3404309470812809  1.0000
  O   O4        1.0  0.23501217235096078  0.8588838116876529  0.6595690525463807  1.0000
  O   O5        1.0  0.5046119340221091  0.2613079242892827  0.3903193628140979  1.0000
  O   O6        1.0  0.4953880662918208  0.73869207582812  0.6096806374230223  1.0000
  O   O7        1.0  0.6036150098246702  0.03368299283641469  0.4255784454855655  1.0000
  O   O8        1.0  0.3963849904892598  0.966317007280988  0.5744215547515548  1.0000
  O   O9        1.0  0.13286589253604864  0.5498292096461296  0.29392803354085234  1.0000
  O   O10       1.0  0.8671341077778812  0.45017079047127323  0.7060719666962679  1.0000
  O   O11       1.0  0.8134307354513348  0.03315072026822766  0.9099387623572167  1.0000
  O   O12       1.0  0.1865692646189923  0.9668492795459324  0.09006123727044481  1.0000
  Cl  Cl1       1.0  0.6666069887666508  0.1770768268417757  0.40963596109335126  1.0000
  Cl  Cl2       1.0  0.33339301154727913  0.8229231732756273  0.5903640391437691  1.0000
