data_image0
_chemical_formula_structural       H136C104N8O16P4Cl4
_chemical_formula_sum              "H136 C104 N8 O16 P4 Cl4"
_cell_length_a       9.610255719292095
_cell_length_b       16.845829860560436
_cell_length_c       16.27322139499253
_cell_angle_alpha    90.0
_cell_angle_beta     90.11545756445727
_cell_angle_gamma    90.0

_space_group_name_H-M_alt    "P 1"
_space_group_IT_number       1

loop_
  _space_group_symop_operation_xyz
  'x, y, z'

loop_
  _atom_site_type_symbol
  _atom_site_label
  _atom_site_symmetry_multiplicity
  _atom_site_fract_x
  _atom_site_fract_y
  _atom_site_fract_z
  _atom_site_occupancy
  H   H1        1.0  0.7780471190431374  0.18455494183036755  0.29835901412139915  1.0000
  H   H2        1.0  0.7219528804000009  0.6845549418137332  0.20164098593400018  1.0000
  H   H3        1.0  0.22195288036759928  0.8154450581363639  0.7016409860011794  1.0000
  H   H4        1.0  0.27804711901073575  0.3154450581529982  0.7983590141885784  1.0000
  H   H5        1.0  0.4960699199402325  0.9233775366815028  0.48093182467831314  1.0000
  H   H6        1.0  0.003930080277705832  0.4233775366981371  0.019068175071847007  1.0000
  H   H7        1.0  0.5039300804956441  0.07662246328522862  0.5190681748220072  1.0000
  H   H8        1.0  0.9960699191330309  0.5766224632685943  0.9809318250507315  1.0000
  H   H9        1.0  0.42490818792494145  0.975563335616715  0.26448770745862593  1.0000
  H   H10       1.0  0.07509181229299684  0.47556333563334935  0.23551229229153411  1.0000
  H   H11       1.0  0.5750918125262398  0.024436664350016464  0.7355122926561525  1.0000
  H   H12       1.0  0.924908187102435  0.5244366643333822  0.7644877072165861  1.0000
  H   H13       1.0  0.7055568772939464  0.992385736908056  0.398676412814472  1.0000
  H   H14       1.0  0.7944431231896365  0.4923857369246902  0.10132358723312714  1.0000
  H   H15       1.0  0.2944431231572348  0.0076142630586756195  0.6013235873003063  1.0000
  H   H16       1.0  0.2055568772615448  0.5076142630420414  0.8986764128816512  1.0000
  H   H17       1.0  0.9116259102926891  0.9350889615049183  0.4683576222733641  1.0000
  H   H18       1.0  0.5883740901755892  0.4350889615215525  0.031642377159776865  1.0000
  H   H19       1.0  0.08837409014318749  0.06491103846181322  0.5316423772269561  1.0000
  H   H20       1.0  0.4116259102602875  0.564911038445179  0.9683576223405433  1.0000
  H   H21       1.0  0.034003012015307824  0.9121521241274603  0.1516705479375125  1.0000
  H   H22       1.0  0.4659969882179351  0.4121521241440946  0.3483294524271058  1.0000
  H   H23       1.0  0.9659969884358734  0.08784787583927117  0.848329452177266  1.0000
  H   H24       1.0  0.5340030122332461  0.5878478758226369  0.6516705476876725  1.0000
  H   H25       1.0  0.047457865288601374  0.8994693562395926  0.00046759553313486895  1.0000
  H   H26       1.0  0.4525421349446416  0.3994693562562268  0.4995324048314834  1.0000
  H   H27       1.0  0.95254213516258  0.10053064372713895  0.9995324045816435  1.0000
  H   H28       1.0  0.5474578655065397  0.6005306437105047  0.5004675952832949  1.0000
  H   H29       1.0  0.2327688500873111  0.9711977513380694  0.9224907406139682  1.0000
  H   H30       1.0  0.26723115031616385  0.47119775135470376  0.5775092589535312  1.0000
  H   H31       1.0  0.7672311503638701  0.02880224862866199  0.0775092595008102  1.0000
  H   H32       1.0  0.7327688501197128  0.5288022486120277  0.42249074054678903  1.0000
  H   H33       1.0  0.4053915630458792  0.05270358345946532  0.998192397069423  1.0000
  H   H34       1.0  0.09460843633245578  0.5527035834428311  0.5018076031203347  1.0000
  H   H35       1.0  0.5946084363648575  0.9472964165072661  0.0018076030531554894  1.0000
  H   H36       1.0  0.9053915630782811  0.44729641652390045  0.49819239700224377  1.0000
  H   H37       1.0  0.3954685161388617  0.06297902262944405  0.1504881054004943  1.0000
  H   H38       1.0  0.10453148303863201  0.5629790226128097  0.3495118943574659  1.0000
  H   H39       1.0  0.604531483271875  0.9370209773372875  0.8495118947220842  1.0000
  H   H40       1.0  0.8954685163568  0.4370209773539217  0.6504881051506544  1.0000
  H   H41       1.0  0.5607425431808722  0.34258605054010693  0.2356997289290706  1.0000
  H   H42       1.0  0.9392574562622662  0.8425860505234727  0.26430027112632865  1.0000
  H   H43       1.0  0.43925745622986445  0.6574139494266246  0.7643002711935079  1.0000
  H   H44       1.0  0.06074254417361042  0.15741394944325882  0.7356997283739914  1.0000
  H   H45       1.0  0.6421946887367107  0.3069630082223784  0.32729944023188945  1.0000
  H   H46       1.0  0.8578053117468724  0.8069630082057442  0.17270055981570973  1.0000
  H   H47       1.0  0.3578053117144706  0.6930369917443532  0.6727005598828889  1.0000
  H   H48       1.0  0.14219468870430896  0.19303699176098738  0.8272994402990687  1.0000
  H   H49       1.0  0.7373482685953429  0.31176542286562514  0.2343026909865997  1.0000
  H   H50       1.0  0.7626517308477955  0.8117654228489909  0.26569730906879957  1.0000
  H   H51       1.0  0.26265173081539384  0.6882345771011062  0.7656973091359788  1.0000
  H   H52       1.0  0.23734826856294114  0.18823457711774055  0.7343026910537789  1.0000
  H   H53       1.0  0.36680963410130907  0.2397271766026045  0.2569416556724608  1.0000
  H   H54       1.0  0.1331903661319339  0.7397271765859702  0.24305834469215754  1.0000
  H   H55       1.0  0.6331903663498722  0.760272823364127  0.7430583444423177  1.0000
  H   H56       1.0  0.8668096343192473  0.26027282338076124  0.7569416554226208  1.0000
  H   H57       1.0  0.4543499596679998  0.20454642594172354  0.34658807978193307  1.0000
  H   H58       1.0  0.045650040549938535  0.7045464259250892  0.15341191996822703  1.0000
  H   H59       1.0  0.5456500407831816  0.7954535746186266  0.6534119203328453  1.0000
  H   H60       1.0  0.9543499599012427  0.29545357404164224  0.8465880801465513  1.0000
  H   H61       1.0  0.41011034854697265  0.13736613803856945  0.26685611888135646  1.0000
  H   H62       1.0  0.08988965063052107  0.6373661380219352  0.23314388087660373  1.0000
  H   H63       1.0  0.589889650863764  0.862633861928162  0.7331438812412221  1.0000
  H   H64       1.0  0.9101103487802155  0.3626338619447963  0.7668561192459749  1.0000
  H   H65       1.0  0.6749776785871361  0.22210079117322432  0.11588447638949324  1.0000
  H   H66       1.0  0.8250223208560022  0.7221007911565901  0.38411552366590607  1.0000
  H   H67       1.0  0.32502232082360055  0.7778992093871259  0.8841155237330852  1.0000
  H   H68       1.0  0.17497767855473445  0.2778992094037602  0.6158844764566724  1.0000
  H   H69       1.0  0.4959820494614682  0.24963113273780257  0.12172839171379814  1.0000
  H   H70       1.0  0.004017950771774724  0.7496311327211683  0.37827160865082016  1.0000
  H   H71       1.0  0.504017950989713  0.7503688672289289  0.8782716084009803  1.0000
  H   H72       1.0  0.9959820496794066  0.2503688672455632  0.6217283914639582  1.0000
  H   H73       1.0  0.5452981038236466  0.14759440470315205  0.12639284875438336  1.0000
  H   H74       1.0  0.9547018956041871  0.6475944046865179  0.3736071506865577  1.0000
  H   H75       1.0  0.4547018955717855  0.8524055952635794  0.873607150753737  1.0000
  H   H76       1.0  0.0452981037912449  0.3524055952802137  0.6263928488215625  1.0000
  H   H77       1.0  0.2474669405086068  0.8191851902949766  0.3361261707539642  1.0000
  H   H78       1.0  0.252533058668887  0.3191851903116109  0.163873829003996  1.0000
  H   H79       1.0  0.75253305890213  0.18081480967175487  0.6638738293686143  1.0000
  H   H80       1.0  0.7474669407265451  0.6808148096551206  0.8361261705041243  1.0000
  H   H81       1.0  0.3529175525106053  0.732782462020504  0.33411080580525704  1.0000
  H   H82       1.0  0.147082447707333  0.2327824620371383  0.1658891939449031  1.0000
  H   H83       1.0  0.6470824479405759  0.2672175385398462  0.6658891943095214  1.0000
  H   H84       1.0  0.8529175527285436  0.767217538523212  0.8341108055554172  1.0000
  H   H85       1.0  0.4177324365756893  0.8229554693804076  0.29300609500675323  1.0000
  H   H86       1.0  0.08226756364224896  0.3229554693970419  0.20699390474340681  1.0000
  H   H87       1.0  0.5822675628197427  0.17704453058632388  0.706993904501367  1.0000
  H   H88       1.0  0.9177324368089325  0.6770445305696897  0.7930060953713716  1.0000
  H   H89       1.0  0.217810811387236  0.8050815490991077  0.49149375546056706  1.0000
  H   H90       1.0  0.2821891888307024  0.30508154911574187  0.008506244289593002  1.0000
  H   H91       1.0  0.7821891890486408  0.19491845086762385  0.5085062440397531  1.0000
  H   H92       1.0  0.7178108116204789  0.6949184508509896  0.9914937558251855  1.0000
  H   H93       1.0  0.32164295845899793  0.717183635950486  0.4906311486020171  1.0000
  H   H94       1.0  0.17835704071849576  0.21718363596712015  0.009368851155943126  1.0000
  H   H95       1.0  0.6783570409517388  0.2828163640162456  0.5093688515205615  1.0000
  H   H96       1.0  0.8216429586769363  0.7828163639996114  0.9906311483521772  1.0000
  H   H97       1.0  0.36647546970797884  0.7985577084269839  0.5558723410778963  1.0000
  H   H98       1.0  0.13352452967035622  0.2985577084436182  0.9441276591118614  1.0000
  H   H99       1.0  0.633524529702758  0.20144229153974755  0.4441276590446822  1.0000
  H   H100      1.0  0.8664754697403806  0.7014422915231133  0.05587234101071712  1.0000
  H   H101      1.0  0.6285500974172777  0.8119100657677529  0.3837992658482858  1.0000
  H   H102      1.0  0.8714499020258607  0.3119100657843872  0.11620073420711348  1.0000
  H   H103      1.0  0.3714499019934589  0.18808993419897854  0.6162007342742927  1.0000
  H   H104      1.0  0.12855009738487608  0.6880899341823443  0.883799265915465  1.0000
  H   H105      1.0  0.6107824411081267  0.805981929794244  0.4924018231233637  1.0000
  H   H106      1.0  0.8892175593601517  0.30598192981087824  0.007598176309777211  1.0000
  H   H107      1.0  0.38921755932775004  0.1940180701724875  0.5075981763769564  1.0000
  H   H108      1.0  0.11078244107572495  0.6940180701558533  0.9924018231905429  1.0000
  H   H109      1.0  0.5681049329448306  0.722506426857328  0.43009786053896953  1.0000
  H   H110      1.0  0.9318950664830032  0.22250642687396224  0.0699021389019715  1.0000
  H   H111      1.0  0.43189506645060155  0.2774935731094035  0.5699021389691507  1.0000
  H   H112      1.0  0.06810493291242883  0.7774935730927692  0.9300978606061489  1.0000
  H   H113      1.0  0.04314636497207409  0.3494365132929203  0.470600367583772  1.0000
  H   H114      1.0  0.4568536342207243  0.849436513276286  0.029399632788646372  1.0000
  H   H115      1.0  0.9568536344386624  0.6505634866738113  0.5293996325388064  1.0000
  H   H116      1.0  0.5431463651900125  0.15056348669044547  0.9706003673339322  1.0000
  H   H117      1.0  0.9703538738909251  0.37867761237069597  0.3729199765958333  1.0000
  H   H118      1.0  0.5296461255522134  0.8786776123540617  0.12708002345956598  1.0000
  H   H119      1.0  0.029646125519811616  0.6213223875960355  0.6270800235267452  1.0000
  H   H120      1.0  0.47035387385852345  0.1213223876126698  0.8729199766630126  1.0000
  H   H121      1.0  0.15262453274349905  0.35791100586358493  0.38533527589154176  1.0000
  H   H122      1.0  0.3473754664492994  0.8579110058469507  0.11466472448087665  1.0000
  H   H123      1.0  0.8473754666672376  0.6420889941031466  0.6146647242310367  1.0000
  H   H124      1.0  0.6526245329614374  0.14208899411978085  0.8853352756417019  1.0000
  H   H125      1.0  0.08339367592035998  0.1344126795024315  0.407433417123991  1.0000
  H   H126      1.0  0.4166063242975784  0.6344126794857973  0.09256658262616901  1.0000
  H   H127      1.0  0.9166063245155167  0.8655873204643  0.5925665823763291  1.0000
  H   H128      1.0  0.583393676153603  0.36558732048093423  0.9074334174886095  1.0000
  H   H129      1.0  0.22380625758309142  0.2028856255993491  0.3982976494717727  1.0000
  H   H130      1.0  0.2761937426348469  0.7028856255827148  0.10170235027838742  1.0000
  H   H131      1.0  0.7761937428680898  0.7971143743673824  0.6017023506430057  1.0000
  H   H132      1.0  0.7238062578010297  0.29711437438401667  0.8982976492219328  1.0000
  H   H133      1.0  0.12396863345099574  0.20354857542684004  0.48856145441824145  1.0000
  H   H134      1.0  0.37603136676694254  0.7035485754102058  0.011438545331918648  1.0000
  H   H135      1.0  0.8760313669848809  0.7964514245398915  0.5114385450820788  1.0000
  H   H136      1.0  0.6239686326437942  0.29645142455652573  0.9885614547906597  1.0000
  C   C1        1.0  0.32549109517004476  0.9831994189123895  0.2958696005800094  1.0000
  C   C2        1.0  0.1745089050478936  0.48319941892902374  0.20413039917015066  1.0000
  C   C3        1.0  0.674508904240692  0.016800581054341977  0.7041303995425691  1.0000
  C   C4        1.0  0.825491095387983  0.5168005810377078  0.7958696003301695  1.0000
  C   C5        1.0  0.2065072780582553  0.9949539796338885  0.25205099113245966  1.0000
  C   C6        1.0  0.2934927221749877  0.49495397965052285  0.24794900923215865  1.0000
  C   C7        1.0  0.7934927213524814  0.005046020332842897  0.7479490089901187  1.0000
  C   C8        1.0  0.7065072782761936  0.5050460203162086  0.7520509908826198  1.0000
  C   C9        1.0  0.07192158372166667  0.0034326335050659375  0.29379351447152097  1.0000
  C   C10       1.0  0.4280784165115763  0.5034326334884317  0.20620648589309734  1.0000
  C   C11       1.0  0.9280784167295147  0.9965673664616657  0.7062064856432574  1.0000
  C   C12       1.0  0.5719215839396049  0.4965673664782998  0.7937935142216811  1.0000
  C   C13       1.0  0.9547074707595375  0.04325633738626383  0.2604901756768281  1.0000
  C   C14       1.0  0.5452925297240454  0.5432563373696296  0.2395098243707711  1.0000
  C   C15       1.0  0.0452925296916436  0.9567436625804677  0.7395098244379503  1.0000
  C   C16       1.0  0.45470747071183143  0.4567436625971019  0.7604901751295492  1.0000
  C   C17       1.0  0.8233767181109473  0.040265575849608735  0.29700974248752227  1.0000
  C   C18       1.0  0.6766232813321912  0.5402655758329744  0.202990257567877  1.0000
  C   C19       1.0  0.17662328129978946  0.9597344241171227  0.7029902576350562  1.0000
  C   C20       1.0  0.32337671806324086  0.45973442413375704  0.7970097419402432  1.0000
  C   C21       1.0  0.8075295253472213  0.9970869817060587  0.3699469311944154  1.0000
  C   C22       1.0  0.6924704751363618  0.497086981722693  0.1300530688531838  1.0000
  C   C23       1.0  0.19247047510396006  0.002913018260672819  0.630053068920363  1.0000
  C   C24       1.0  0.30752952531481953  0.5029130182440386  0.8699469312615947  1.0000
  C   C25       1.0  0.9222805048060237  0.9639022567843859  0.4089880970688334  1.0000
  C   C26       1.0  0.5777194956775593  0.46390225680102015  0.09101190297876581  1.0000
  C   C27       1.0  0.07771949564515751  0.03609774318234563  0.5910119030459451  1.0000
  C   C28       1.0  0.42228050475831747  0.5360977431657113  0.9089880965215544  1.0000
  C   C29       1.0  0.05338932753564399  0.9700676212015558  0.37300996210539356  1.0000
  C   C30       1.0  0.4466106726822944  0.4700676212181902  0.12699003764476657  1.0000
  C   C31       1.0  0.9466106729155374  0.02993237876517559  0.6269900380093848  1.0000
  C   C32       1.0  0.5533893267284423  0.5299323787485413  0.8730099624778119  1.0000
  C   C33       1.0  0.21206374642043377  0.9900365305865169  0.1610329648172047  1.0000
  C   C34       1.0  0.28793625379750454  0.49003653060315105  0.33896703493295544  1.0000
  C   C35       1.0  0.7879362540307476  0.009963469380214678  0.8389670352975738  1.0000
  C   C36       1.0  0.712063746638372  0.5099634693635804  0.6610329645673647  1.0000
  C   C37       1.0  0.1156486355543421  0.9429675908807693  0.11793842473237498  1.0000
  C   C38       1.0  0.3843513646635962  0.44296759089740356  0.3820615750177851  1.0000
  C   C39       1.0  0.8843513648815345  0.05703240908596218  0.8820615747679452  1.0000
  C   C40       1.0  0.6156486347471404  0.5570324090693279  0.6179384251047934  1.0000
  C   C41       1.0  0.12375090994797137  0.935728718648924  0.032822856665766315  1.0000
  C   C42       1.0  0.3762490902852716  0.43572871866555835  0.467177143698852  1.0000
  C   C43       1.0  0.8762490905032099  0.0642712813178074  0.9671771434490122  1.0000
  C   C44       1.0  0.6237509101659097  0.5642712813011732  0.5328228564159264  1.0000
  C   C45       1.0  0.2268751598124634  0.9760418564178109  0.9891721538102282  1.0000
  C   C46       1.0  0.27312484059101155  0.47604185643444513  0.5108278457572712  1.0000
  C   C47       1.0  0.7731248406387179  0.0239581435489206  0.010827846304550302  1.0000
  C   C48       1.0  0.7268751598448651  0.5239581435322864  0.48917215374304895  1.0000
  C   C49       1.0  0.32360696603541744  0.02219689698252479  0.03184797432926431  1.0000
  C   C50       1.0  0.1763930341825209  0.5221968969658906  0.4681520254208958  1.0000
  C   C51       1.0  0.6763930344157638  0.9778031029842067  0.9681520257855141  1.0000
  C   C52       1.0  0.8236069662686605  0.47780310300084095  0.5318479746938826  1.0000
  C   C53       1.0  0.31745644490299874  0.028762363386702315  0.11715174832075474  1.0000
  C   C54       1.0  0.18254355531493957  0.5287623633700681  0.3828482514294054  1.0000
  C   C55       1.0  0.6825435555481825  0.9712376365800292  0.8828482517940236  1.0000
  C   C56       1.0  0.8174564451362417  0.4712376365966634  0.6171517486853731  1.0000
  C   C57       1.0  0.697905888251654  0.0805542019142092  0.258942326959732  1.0000
  C   C58       1.0  0.8020941122319291  0.580554201897575  0.24105767308786716  1.0000
  C   C59       1.0  0.3020941121995273  0.9194457980525222  0.7410576731550463  1.0000
  C   C60       1.0  0.19790588820394764  0.41944579806915655  0.7589423264124531  1.0000
  C   C61       1.0  0.586079197909252  0.21493177599263397  0.2384786230912192  1.0000
  C   C62       1.0  0.9139208025743311  0.7149317759759997  0.26152137695638  1.0000
  C   C63       1.0  0.41392080254192937  0.7850682239740976  0.7615213770235592  1.0000
  C   C64       1.0  0.08607919787685028  0.2850682239907318  0.7384786231583984  1.0000
  C   C65       1.0  0.6346262437761169  0.29895336185191984  0.2604271362805011  1.0000
  C   C66       1.0  0.8653737567074662  0.7989533618352855  0.23957286376709813  1.0000
  C   C67       1.0  0.36537375667506444  0.7010466381148116  0.7395728638342773  1.0000
  C   C68       1.0  0.1346262437437152  0.2010466381314459  0.7604271363476802  1.0000
  C   C69       1.0  0.44567837173035474  0.19791198875904373  0.27960651255683017  1.0000
  C   C70       1.0  0.05432162848758355  0.6979119887424096  0.2203934871933299  1.0000
  C   C71       1.0  0.554321627680382  0.8020880112076878  0.7203934875657483  1.0000
  C   C72       1.0  0.9456783719635977  0.302088011224322  0.7796065129214484  1.0000
  C   C73       1.0  0.5748313803184805  0.20782647509675883  0.14462354428636545  1.0000
  C   C74       1.0  0.9251686201651025  0.7078264750801246  0.3553764557612337  1.0000
  C   C75       1.0  0.4251686201327008  0.7921735248699726  0.8553764558284129  1.0000
  C   C76       1.0  0.07483138028607883  0.2921735248866069  0.6446235443535446  1.0000
  C   C77       1.0  0.4150565571199782  0.8180840982055078  0.4266948941897081  1.0000
  C   C78       1.0  0.08494344311326484  0.3180840982221421  0.07330510617491022  1.0000
  C   C79       1.0  0.5849434433312031  0.18191590176122363  0.5733051059250703  1.0000
  C   C80       1.0  0.9150565573379166  0.6819159017445894  0.9266948939398681  1.0000
  C   C81       1.0  0.35451352751363885  0.7973475495824067  0.34238639667336074  1.0000
  C   C82       1.0  0.1454864716638549  0.29734754959904103  0.1576136030845994  1.0000
  C   C83       1.0  0.6454864718817932  0.20265245038432475  0.6576136028347594  1.0000
  C   C84       1.0  0.8545135277468817  0.7026524503676905  0.8423863970379791  1.0000
  C   C85       1.0  0.32472390667851053  0.7823481401088747  0.4952494929550419  1.0000
  C   C86       1.0  0.17527609355473242  0.2823481401255089  0.004750507409576433  1.0000
  C   C87       1.0  0.6752760937726708  0.21765185985785684  0.5047505071597366  1.0000
  C   C88       1.0  0.8247239068964488  0.7176518598412226  0.995249492705202  1.0000
  C   C89       1.0  0.5647052632742929  0.7874821745088353  0.43367179703333364  1.0000
  C   C90       1.0  0.9352947361688454  0.2874821745254695  0.06632820302206562  1.0000
  C   C91       1.0  0.4352947361364438  0.21251782545789627  0.5663282030892447  1.0000
  C   C92       1.0  0.06470526322658658  0.7125178254412621  0.9336717964860547  1.0000
  C   C93       1.0  0.022216207083152983  0.2550751186238709  0.3836324361258096  1.0000
  C   C94       1.0  0.47778379313478536  0.7550751186072368  0.11636756362435052  1.0000
  C   C95       1.0  0.9777837933680283  0.7449248813428606  0.6163675639889689  1.0000
  C   C96       1.0  0.5222162062759513  0.24492488135949486  0.8836324364982279  1.0000
  C   C97       1.0  0.04676195811790391  0.34064640017734865  0.40369700957826926  1.0000
  C   C98       1.0  0.453238042115339  0.8406464001607145  0.09630299078634905  1.0000
  C   C99       1.0  0.9532380423332774  0.6593535997893828  0.5963029905365091  1.0000
  C   C100      1.0  0.5467619583358422  0.15935359980601707  0.9036970093284294  1.0000
  C   C101      1.0  0.11752230107027552  0.19476321422914145  0.42178929753361616  1.0000
  C   C102      1.0  0.3824776991629675  0.6947632148061259  0.07821070283100218  1.0000
  C   C103      1.0  0.8824776983404612  0.80523678573759  0.5782107025889623  1.0000
  C   C104      1.0  0.6175223012882138  0.30523678575422436  0.9217892972837761  1.0000
  N   N1        1.0  0.6926822894809098  0.15959835949040954  0.27067175674761434  1.0000
  N   N2        1.0  0.8073177099622285  0.6595983594737753  0.22932824330778498  1.0000
  N   N3        1.0  0.30731770992982693  0.8404016410699406  0.7293282433749642  1.0000
  N   N4        1.0  0.19268228943320345  0.3404016404929562  0.7706717562003353  1.0000
  N   N5        1.0  0.42390537736583017  0.9054426392914168  0.43756269490397154  1.0000
  N   N6        1.0  0.07609462286741285  0.405442639308051  0.06243730546064677  1.0000
  N   N7        1.0  0.5760946230853512  0.09455736067531474  0.5624373052108068  1.0000
  N   N8        1.0  0.9239053775837685  0.5945573606586805  0.9375626946541317  1.0000
  O   O1        1.0  0.1648115049754515  0.9415852452087097  0.417667947100335  1.0000
  O   O2        1.0  0.33518849525779143  0.44158524522534387  0.0823320532642833  1.0000
  O   O3        1.0  0.8351884954757298  0.058414754758021895  0.5823320530144435  1.0000
  O   O4        1.0  0.6648115051933898  0.5584147547413876  0.9176679468504951  1.0000
  O   O5        1.0  0.3523171146726859  0.052066975462781974  0.44905544055095015  1.0000
  O   O6        1.0  0.14768288554525244  0.5520669754461478  0.05094455919920991  1.0000
  O   O7        1.0  0.6476828857784954  0.9479330245039496  0.5509445595638282  1.0000
  O   O8        1.0  0.8523171149059289  0.44793302452058376  0.9490554409155685  1.0000
  O   O9        1.0  0.6096624372551166  0.04000058801363095  0.22155947063000542  1.0000
  O   O10       1.0  0.8903375621880218  0.5400005879969967  0.2784405294253938  1.0000
  O   O11       1.0  0.39033756215562015  0.9599994119531006  0.778440529492573  1.0000
  O   O12       1.0  0.10966243826315943  0.4599994119697348  0.7215594706893846  1.0000
  O   O13       1.0  0.9281704358616794  0.23536913603068355  0.3362994906184978  1.0000
  O   O14       1.0  0.5718295646219037  0.7353691360140493  0.1637005094291014  1.0000
  O   O15       1.0  0.07182956457419734  0.764630863936048  0.6637005088818224  1.0000
  O   O16       1.0  0.42817043582927755  0.2646308639526822  0.836299490685677  1.0000
  P   P1        1.0  0.3243042732470425  0.9763863695731758  0.4041401370879106  1.0000
  P   P2        1.0  0.17569572697089586  0.47638636958980995  0.09585986266224954  1.0000
  P   P3        1.0  0.6756957272041388  0.023613630393555816  0.5958598630268679  1.0000
  P   P4        1.0  0.8243042734649808  0.5236136303769215  0.9041401368380707  1.0000
  Cl  Cl1       1.0  0.9743176968209722  0.10382587824271261  0.1752321319338167  1.0000
  Cl  Cl2       1.0  0.5256823026221661  0.6038258782260784  0.32476786812158265  1.0000
  Cl  Cl3       1.0  0.025682302589764425  0.8961741217240189  0.8247678681887618  1.0000
  Cl  Cl4       1.0  0.47431769678857055  0.39617412174065314  0.6752321320009959  1.0000
