data_image0
_chemical_formula_structural       H76B4C84N8O20
_chemical_formula_sum              "H76 B4 C84 N8 O20"
_cell_length_a       14.491692714255967
_cell_length_b       9.271500210018248
_cell_length_c       13.985177170487312
_cell_angle_alpha    90.0
_cell_angle_beta     90.0
_cell_angle_gamma    90.0

_space_group_name_H-M_alt    "P 1"
_space_group_IT_number       1

loop_
  _space_group_symop_operation_xyz
  'x, y, z'

loop_
  _atom_site_type_symbol
  _atom_site_label
  _atom_site_symmetry_multiplicity
  _atom_site_fract_x
  _atom_site_fract_y
  _atom_site_fract_z
  _atom_site_occupancy
  H   H1        1.0  0.10509034175847763  0.2888843897243171  0.47876520178304555  1.0000
  H   H2        1.0  0.394909658439706  0.7111156102737146  0.9787652014081017  1.0000
  H   H3        1.0  0.8949096586378896  0.2888843897243171  0.47876520178304555  1.0000
  H   H4        1.0  0.6050903412666108  0.7111156102737146  0.9787652014081017  1.0000
  H   H5        1.0  0.16354657642364204  0.020900778257073305  0.4162473802823592  1.0000
  H   H6        1.0  0.3364534237745416  0.9790992217409585  0.9162473806224581  1.0000
  H   H7        1.0  0.8364534232826747  0.020900778257073305  0.4162473802823592  1.0000
  H   H8        1.0  0.6635465766218256  0.9790992217409585  0.9162473806224581  1.0000
  H   H9        1.0  0.35034012244860546  0.028861025070232228  0.422929969202092  1.0000
  H   H10       1.0  0.1496598777495781  0.9711389749277997  0.9229299688271482  1.0000
  H   H11       1.0  0.6496598779477617  0.028861025070232228  0.422929969202092  1.0000
  H   H12       1.0  0.850340122646789  0.9711389749277997  0.9229299688271482  1.0000
  H   H13       1.0  0.5000000001981836  0.1264639382451885  0.47130951647216957  1.0000
  H   H14       1.0  0.0  0.8735360617528433  0.9713095160972257  1.0000
  H   H15       1.0  0.5000000001981836  0.4820479543505509  0.7346957707252251  1.0000
  H   H16       1.0  0.0  0.5179520456474809  0.23469577110016904  1.0000
  H   H17       1.0  0.5000000001981836  0.6722073611415831  0.8589017631716885  1.0000
  H   H18       1.0  0.0  0.3277926388564487  0.35890176354663245  1.0000
  H   H19       1.0  0.5000000001981836  0.9317965867772975  0.8142609779753831  1.0000
  H   H20       1.0  0.0  0.06820341322073437  0.31426097763528416  1.0000
  H   H21       1.0  0.5000000001981836  0.0030893349890722408  0.6402813865595085  1.0000
  H   H22       1.0  0.0  0.9969106650089595  0.14028138693445233  1.0000
  H   H23       1.0  0.24633393837341522  0.43549236893044874  0.5140473954932026  1.0000
  H   H24       1.0  0.25366606182476836  0.5645076310675831  0.014047395868146483  1.0000
  H   H25       1.0  0.7536660620229519  0.43549236893044874  0.5140473954932026  1.0000
  H   H26       1.0  0.7463339378815483  0.5645076310675831  0.014047395868146483  1.0000
  H   H27       1.0  0.3959759527853485  0.7407933963673482  0.3269175766788437  1.0000
  H   H28       1.0  0.1040240467227846  0.2592066036306836  0.8269175770189426  1.0000
  H   H29       1.0  0.6040240469209682  0.7407933963673482  0.3269175766788437  1.0000
  H   H30       1.0  0.8959759529835322  0.2592066036306836  0.8269175770189426  1.0000
  H   H31       1.0  0.3370200000994676  0.857470401759755  0.1578814857390228  1.0000
  H   H32       1.0  0.16298000009871602  0.1425295982382768  0.6578814853640789  1.0000
  H   H33       1.0  0.6629799996068492  0.857470401759755  0.1578814857390228  1.0000
  H   H34       1.0  0.8370200002976512  0.1425295982382768  0.6578814853640789  1.0000
  H   H35       1.0  0.15092812434867414  0.8524082274689875  0.16307205280264125  1.0000
  H   H36       1.0  0.349071875159459  0.14759177252904435  0.6630720531427401  1.0000
  H   H37       1.0  0.8490718753576425  0.8524082274689875  0.16307205280264125  1.0000
  H   H38       1.0  0.6509281245468578  0.14759177252904435  0.6630720531427401  1.0000
  H   H39       1.0  0.0  0.8445681553821146  0.24882177376654185  1.0000
  H   H40       1.0  0.5000000001981836  0.1554318446159172  0.7488217741066409  1.0000
  H   H41       1.0  0.0  0.9545399848491812  0.5056298703832295  1.0000
  H   H42       1.0  0.5000000001981836  0.04546001514885049  0.0056298700431305655  1.0000
  H   H43       1.0  0.0  0.07262683975052994  0.664967200388778  1.0000
  H   H44       1.0  0.5000000001981836  0.9273731602475019  0.16496720076372184  1.0000
  H   H45       1.0  0.0  0.9279758879478109  0.8128324905306793  1.0000
  H   H46       1.0  0.5000000001981836  0.0720241120502208  0.3128324909056231  1.0000
  H   H47       1.0  0.0  0.6567748457170143  0.8043410521633052  1.0000
  H   H48       1.0  0.5000000001981836  0.3432251542810176  0.304341052538249  1.0000
  H   H49       1.0  0.25333524884835995  0.6825433993046898  0.4246689382336265  1.0000
  H   H50       1.0  0.2466647513498237  0.3174566006933421  0.9246689385737253  1.0000
  H   H51       1.0  0.7466647515480073  0.6825433993046898  0.4246689382336265  1.0000
  H   H52       1.0  0.753335248356493  0.3174566006933421  0.9246689385737253  1.0000
  H   H53       1.0  0.26114771715226104  0.8902326757304527  0.5797445503307472  1.0000
  H   H54       1.0  0.23885228304592254  0.109767324267579  0.07974454999064838  1.0000
  H   H55       1.0  0.7388522825540557  0.8902326757304527  0.5797445503307472  1.0000
  H   H56       1.0  0.7611477173504447  0.109767324267579  0.07974454999064838  1.0000
  H   H57       1.0  0.30445000504735864  0.8573649474127936  0.6987113721105265  1.0000
  H   H58       1.0  0.19554999515082497  0.14263505258523823  0.19871137177042753  1.0000
  H   H59       1.0  0.6955499946589581  0.8573649474127936  0.6987113721105265  1.0000
  H   H60       1.0  0.8044500052455423  0.14263505258523823  0.19871137177042753  1.0000
  H   H61       1.0  0.18479413777284837  0.8658810007171643  0.6793041135044103  1.0000
  H   H62       1.0  0.31520586173528475  0.13411899928086746  0.1793041131643113  1.0000
  H   H63       1.0  0.8152058619334683  0.8658810007171643  0.6793041135044103  1.0000
  H   H64       1.0  0.6847941379710321  0.13411899928086746  0.1793041131643113  1.0000
  H   H65       1.0  0.23407279031407188  0.464608702197454  0.6986705574684922  1.0000
  H   H66       1.0  0.2659272098841118  0.5353912978005778  0.1986705571283932  1.0000
  H   H67       1.0  0.7659272093922448  0.464608702197454  0.6986705574684922  1.0000
  H   H68       1.0  0.7340727905122555  0.5353912978005778  0.1986705571283932  1.0000
  H   H69       1.0  0.18204861171288297  0.6123968118843224  0.7620533948250755  1.0000
  H   H70       1.0  0.31795138848530063  0.3876031881137095  0.26205339448497655  1.0000
  H   H71       1.0  0.8179513886834842  0.6123968118843224  0.7620533948250755  1.0000
  H   H72       1.0  0.6820486119110666  0.3876031881137095  0.26205339448497655  1.0000
  H   H73       1.0  0.30309926704966816  0.5952183179629285  0.7614192619934432  1.0000
  H   H74       1.0  0.19690073314851547  0.4047816820351033  0.2614192623683871  1.0000
  H   H75       1.0  0.6969007333466991  0.5952183179629285  0.7614192619934432  1.0000
  H   H76       1.0  0.8030992672478517  0.4047816820351033  0.2614192623683871  1.0000
  B   B1        1.0  0.5000000001981836  0.5454263868252716  0.5192145942436409  1.0000
  B   B2        1.0  0.0  0.4545736131727602  0.01921459461858476  1.0000
  B   B3        1.0  0.0  0.6210247845088133  0.47963441064982004  1.0000
  B   B4        1.0  0.5000000001981836  0.3789752154892185  0.9796344102748762  1.0000
  C   C1        1.0  0.17425464711350325  0.24665414314815604  0.4686130586768704  1.0000
  C   C2        1.0  0.3257453523946298  0.7533458568498758  0.9686130590169694  1.0000
  C   C3        1.0  0.8257453525928135  0.24665414314815604  0.4686130586768704  1.0000
  C   C4        1.0  0.6742546473116868  0.7533458568498758  0.9686130590169694  1.0000
  C   C5        1.0  0.20597802540096533  0.11108806629665953  0.4388595757622525  1.0000
  C   C6        1.0  0.2940219741071678  0.8889119337013722  0.9388595761023514  1.0000
  C   C7        1.0  0.7940219743053515  0.11108806629665953  0.4388595757622525  1.0000
  C   C8        1.0  0.7059780255991489  0.8889119337013722  0.9388595761023514  1.0000
  C   C9        1.0  0.30299575326217776  0.11469439420936033  0.44217055991608323  1.0000
  C   C10       1.0  0.1970042462459554  0.8853056057886716  0.9421705595411394  1.0000
  C   C11       1.0  0.6970042464441389  0.11469439420936033  0.44217055991608323  1.0000
  C   C12       1.0  0.8029957534603614  0.8853056057886716  0.9421705595411394  1.0000
  C   C13       1.0  0.32849613870966016  0.25343267721237267  0.4733258677601252  1.0000
  C   C14       1.0  0.17150386079847293  0.7465673227856592  0.9733258673851813  1.0000
  C   C15       1.0  0.6715038609966565  0.25343267721237267  0.4733258677601252  1.0000
  C   C16       1.0  0.8284961389078437  0.7465673227856592  0.9733258673851813  1.0000
  C   C17       1.0  0.4169486276821198  0.31844594975144686  0.48728208852305455  1.0000
  C   C18       1.0  0.08305137251606379  0.6815540502465849  0.9872820881481107  1.0000
  C   C19       1.0  0.5830513727142475  0.31844594975144686  0.48728208852305455  1.0000
  C   C20       1.0  0.9169486271902529  0.6815540502465849  0.9872820881481107  1.0000
  C   C21       1.0  0.5000000001981836  0.2424136492572626  0.4827873596230409  1.0000
  C   C22       1.0  0.0  0.7575863507407692  0.982787359248097  1.0000
  C   C23       1.0  0.5000000001981836  0.6341372460572298  0.6177017519828093  1.0000
  C   C24       1.0  0.0  0.3658627539408019  0.11770175164271032  1.0000
  C   C25       1.0  0.5000000001981836  0.5952923566820624  0.7139118638460624  1.0000
  C   C26       1.0  0.0  0.40470764331596937  0.21391186350596358  1.0000
  C   C27       1.0  0.5000000001981836  0.7030934867429799  0.7838443221966005  1.0000
  C   C28       1.0  0.0  0.29690651325505196  0.28384432185650166  1.0000
  C   C29       1.0  0.5000000001981836  0.849545918306623  0.7584819928048421  1.0000
  C   C30       1.0  0.0  0.15045408169140886  0.2584819924647432  1.0000
  C   C31       1.0  0.5000000001981836  0.8900390296150097  0.662239674699615  1.0000
  C   C32       1.0  0.0  0.10996097038302212  0.16223967435951608  1.0000
  C   C33       1.0  0.5000000001981836  0.7807782112950793  0.5936318445446419  1.0000
  C   C34       1.0  0.0  0.2192217887029525  0.09363184491958582  1.0000
  C   C35       1.0  0.5000000001981836  0.7960699954495792  0.4879663201122112  1.0000
  C   C36       1.0  0.0  0.20393000454845253  0.9879663197372673  1.0000
  C   C37       1.0  0.3261876085289802  0.7603709734463916  0.30217115224810187  1.0000
  C   C38       1.0  0.17381239166920343  0.23962902655164015  0.802171151873158  1.0000
  C   C39       1.0  0.6738123911773365  0.7603709734463916  0.30217115224810187  1.0000
  C   C40       1.0  0.8261876087271639  0.23962902655164015  0.802171151873158  1.0000
  C   C41       1.0  0.2942428772178755  0.8202388532313943  0.21639803079409586  1.0000
  C   C42       1.0  0.2057571229803081  0.17976114676663743  0.716398030419152  1.0000
  C   C43       1.0  0.7057571231784917  0.8202388532313943  0.21639803079409586  1.0000
  C   C44       1.0  0.7942428774160591  0.17976114676663743  0.716398030419152  1.0000
  C   C45       1.0  0.19743905880541582  0.8177487998983799  0.21926538095428  1.0000
  C   C46       1.0  0.3025609413927678  0.18225120009965187  0.7192653812943789  1.0000
  C   C47       1.0  0.8025609415909514  0.8177487998983799  0.21926538095428  1.0000
  C   C48       1.0  0.6974390583135489  0.18225120009965187  0.7192653812943789  1.0000
  C   C49       1.0  0.17166115919314273  0.7544071651362486  0.30671476361786654  1.0000
  C   C50       1.0  0.3283388403149904  0.24559283486178324  0.8067147639579655  1.0000
  C   C51       1.0  0.8283388405131741  0.7544071651362486  0.30671476361786654  1.0000
  C   C52       1.0  0.6716611593913263  0.24559283486178324  0.8067147639579655  1.0000
  C   C53       1.0  0.08358166046458206  0.7174636304071127  0.3446743728189777  1.0000
  C   C54       1.0  0.416418339043551  0.2825363695909191  0.8446743731590767  1.0000
  C   C55       1.0  0.9164183392417347  0.7174636304071127  0.3446743728189777  1.0000
  C   C56       1.0  0.5835816606627656  0.2825363695909191  0.8446743731590767  1.0000
  C   C57       1.0  0.0  0.7693891213303397  0.30810748605266725  1.0000
  C   C58       1.0  0.5000000001981836  0.2306108786676921  0.8081074863927661  1.0000
  C   C59       1.0  0.0  0.7377113471463254  0.5644412576093908  1.0000
  C   C60       1.0  0.5000000001981836  0.26228865285170644  0.06444125798433464  1.0000
  C   C61       1.0  0.0  0.8882437279245654  0.5701553832887307  1.0000
  C   C62       1.0  0.5000000001981836  0.11175627207346638  0.07015538294863177  1.0000
  C   C63       1.0  0.0  0.9551607366012852  0.659840776953021  1.0000
  C   C64       1.0  0.5000000001981836  0.04483926339674664  0.15984077661292206  1.0000
  C   C65       1.0  0.0  0.8728074105262921  0.7440830611684984  1.0000
  C   C66       1.0  0.5000000001981836  0.12719258947173978  0.2440830608283996  1.0000
  C   C67       1.0  0.0  0.7221490080715667  0.7395040458854358  1.0000
  C   C68       1.0  0.5000000001981836  0.2778509919264651  0.23950404554533694  1.0000
  C   C69       1.0  0.0  0.6573442875420055  0.6494153473554838  1.0000
  C   C70       1.0  0.5000000001981836  0.3426557124560263  0.14941534773042767  1.0000
  C   C71       1.0  0.0  0.4997175575743077  0.6275987213463498  1.0000
  C   C72       1.0  0.5000000001981836  0.500282442423724  0.1275987217212937  1.0000
  C   C73       1.0  0.2502545493827908  0.8312007199948963  0.6465820668387651  1.0000
  C   C74       1.0  0.2497454508153928  0.16879928000313552  0.1465820664986662  1.0000
  C   C75       1.0  0.7497454503235259  0.8312007199948963  0.6465820668387651  1.0000
  C   C76       1.0  0.7502545495809745  0.16879928000313552  0.1465820664986662  1.0000
  C   C77       1.0  0.24624799120184881  0.6721734043931746  0.6308117360584425  1.0000
  C   C78       1.0  0.2537520083062843  0.3278265956048571  0.13081173643338648  1.0000
  C   C79       1.0  0.7537520085044679  0.6721734043931746  0.6308117360584425  1.0000
  C   C80       1.0  0.7462479914000325  0.3278265956048571  0.13081173643338648  1.0000
  C   C81       1.0  0.2408547785840354  0.5785356057269013  0.7177003485648552  1.0000
  C   C82       1.0  0.2591452209240977  0.42146439427113047  0.2177003489397991  1.0000
  C   C83       1.0  0.7591452211222813  0.5785356057269013  0.7177003485648552  1.0000
  C   C84       1.0  0.7408547787822191  0.42146439427113047  0.2177003489397991  1.0000
  N   N1        1.0  0.24831525764136758  0.3308173823569339  0.4881511829829838  1.0000
  N   N2        1.0  0.25168474255681605  0.6691826176410979  0.9881511833230827  1.0000
  N   N3        1.0  0.7516847427549997  0.3308173823569339  0.4881511829829838  1.0000
  N   N4        1.0  0.7483152578395512  0.6691826176410979  0.9881511833230827  1.0000
  N   N5        1.0  0.25211556248400496  0.721134930545058  0.35546048787215895  1.0000
  N   N6        1.0  0.24788443771417865  0.2788650694529738  0.8554604882122578  1.0000
  N   N7        1.0  0.7478844372223117  0.721134930545058  0.35546048787215895  1.0000
  N   N8        1.0  0.7521155626821886  0.2788650694529738  0.8554604882122578  1.0000
  O   O1        1.0  0.41506050732658106  0.45942454117591136  0.503582763675106  1.0000
  O   O2        1.0  0.0849394928716026  0.5405754588221203  0.0035827640500498623  1.0000
  O   O3        1.0  0.5849394930697862  0.45942454117591136  0.503582763675106  1.0000
  O   O4        1.0  0.9150605075247646  0.5405754588221203  0.0035827640500498623  1.0000
  O   O5        1.0  0.5000000001981836  0.6656621161838763  0.44614239590520605  1.0000
  O   O6        1.0  0.0  0.3343378838141556  0.9461423962453049  1.0000
  O   O7        1.0  0.5000000001981836  0.9084171708154901  0.4409300343375721  1.0000
  O   O8        1.0  0.0  0.09158282918254163  0.940930034677671  1.0000
  O   O9        1.0  0.08440432281570079  0.6267872952988438  0.4182760710636152  1.0000
  O   O10       1.0  0.4155956773824828  0.373212704699188  0.9182760714037141  1.0000
  O   O11       1.0  0.9155956768906159  0.6267872952988438  0.4182760710636152  1.0000
  O   O12       1.0  0.5844043230138845  0.373212704699188  0.9182760714037141  1.0000
  O   O13       1.0  0.0  0.4806707834816766  0.5308779259277197  1.0000
  O   O14       1.0  0.5000000001981836  0.5193292165163552  0.03087792630266355  1.0000
  O   O15       1.0  0.0  0.3985162375348453  0.6837001178775073  1.0000
  O   O16       1.0  0.5000000001981836  0.6014837624631866  0.1837001175374084  1.0000
  O   O17       1.0  0.24657150965427832  0.6198359844494561  0.5491809940175665  1.0000
  O   O18       1.0  0.2534284905439053  0.3801640155485757  0.04918099367746755  1.0000
  O   O19       1.0  0.7534284900520384  0.6198359844494561  0.5491809940175665  1.0000
  O   O20       1.0  0.746571509852462  0.3801640155485757  0.04918099367746755  1.0000
