data_image0
_chemical_formula_structural       H40C60N8O8F24
_chemical_formula_sum              "H40 C60 N8 O8 F24"
_cell_length_a       3.6311186628421313
_cell_length_b       32.050030256692544
_cell_length_c       12.242268439044038
_cell_angle_alpha    90.0
_cell_angle_beta     91.82986558137993
_cell_angle_gamma    90.0

_space_group_name_H-M_alt    "P 1"
_space_group_IT_number       1

loop_
  _space_group_symop_operation_xyz
  'x, y, z'

loop_
  _atom_site_type_symbol
  _atom_site_label
  _atom_site_symmetry_multiplicity
  _atom_site_fract_x
  _atom_site_fract_y
  _atom_site_fract_z
  _atom_site_occupancy
  H   H1        1.0  0.2387803477514153  0.511875594768721  0.8273748375487769  1.0000
  H   H2        1.0  0.7612196524875336  0.01187559471712268  0.6726251625935887  1.0000
  H   H3        1.0  0.7612196534656406  0.48812440533447565  0.17262516240371029  1.0000
  H   H4        1.0  0.23878034597419942  0.9881244050740619  0.3273748373276666  1.0000
  H   H5        1.0  0.7596497856543637  0.41517409604383854  0.620019622427317  1.0000
  H   H6        1.0  0.24035021458458522  0.9151740960954369  0.8799803777150486  1.0000
  H   H7        1.0  0.24035021280736937  0.5848259040593582  0.37998037749393815  1.0000
  H   H8        1.0  0.7596497866324707  0.08482590400775983  0.12001962223743873  1.0000
  H   H9        1.0  0.12267813079488243  0.3332792669601151  0.9138454675613034  1.0000
  H   H10       1.0  0.8773218694440666  0.8332792670117135  0.5861545325810621  1.0000
  H   H11       1.0  0.8773218704221736  0.6667207328310695  0.08615453239118384  1.0000
  H   H12       1.0  0.12267813177298942  0.16672073277947108  0.41384546737142514  1.0000
  H   H13       1.0  0.35373192870240117  0.19958836820955095  0.22733499970001164  1.0000
  H   H14       1.0  0.6462680707374389  0.6995883682611493  0.2726650000313652  1.0000
  H   H15       1.0  0.646268069759332  0.8004116318936457  0.7726650002212435  1.0000
  H   H16       1.0  0.35373193047961704  0.3004116318420474  0.727334999921122  1.0000
  H   H17       1.0  0.8584515510937271  0.19469634693081098  0.9014417492371082  1.0000
  H   H18       1.0  0.14154844914522197  0.6946963469824093  0.5985582509052574  1.0000
  H   H19       1.0  0.14154844736800612  0.8053036531723857  0.09855825068414709  1.0000
  H   H20       1.0  0.8584515520718341  0.3053036531207874  0.40144174904722973  1.0000
  H   H21       1.0  0.8555209338541966  0.4008479098804379  0.061193244375658894  1.0000
  H   H22       1.0  0.14447906558564352  0.9008479099320362  0.438806755355718  1.0000
  H   H23       1.0  0.14447906460753654  0.5991520902227587  0.9388067555455961  1.0000
  H   H24       1.0  0.8555209356314124  0.09915209017116046  0.5611932445967692  1.0000
  H   H25       1.0  0.3971000742822292  0.4412300496049313  0.35605988691671514  1.0000
  H   H26       1.0  0.6028999251402857  0.9412300496565297  0.14394011363132364  1.0000
  H   H27       1.0  0.6028999241795039  0.5587699504982654  0.6439401130045401  1.0000
  H   H28       1.0  0.39710007605944514  0.05876995044666704  0.8560598871378254  1.0000
  H   H29       1.0  0.8064267435317567  0.42175065520187505  0.4195732408310997  1.0000
  H   H30       1.0  0.19357325589075838  0.9217506549414612  0.08042675971693898  1.0000
  H   H31       1.0  0.19357325492997643  0.5782493449013216  0.5804267590901555  1.0000
  H   H32       1.0  0.8064267453262977  0.07824934484972329  0.9195732402355483  1.0000
  H   H33       1.0  0.4100512852438315  0.3893746661095302  0.4146255700569497  1.0000
  H   H34       1.0  0.5899487141786836  0.8893746661611286  0.08537443049108893  1.0000
  H   H35       1.0  0.5899487159732244  0.6106253339936665  0.5853744298955376  1.0000
  H   H36       1.0  0.41005128428304954  0.11062533394206814  0.9146255694301664  1.0000
  H   H37       1.0  0.8596613552784629  0.3446593935022371  0.18897317083809537  1.0000
  H   H38       1.0  0.14033864691670006  0.8446593935538355  0.31102682892451355  1.0000
  H   H39       1.0  0.14033864593859305  0.6553406062889474  0.811026829114392  1.0000
  H   H40       1.0  0.859661354300356  0.15534060654936127  0.6889731710279737  1.0000
  C   C1        1.0  0.9683486978236412  0.41232881511057146  0.8952718852436569  1.0000
  C   C2        1.0  0.03165130241530774  0.9123288151621698  0.6047281148987087  1.0000
  C   C3        1.0  0.03165130063809187  0.5876711849926253  0.10472811467759827  1.0000
  C   C4        1.0  0.9683486988017482  0.0876711849410269  0.3952718850537785  1.0000
  C   C5        1.0  0.11149824953917747  0.4529119830384206  0.903991884709748  1.0000
  C   C6        1.0  0.8885017506997716  0.952911983090019  0.5960081154326176  1.0000
  C   C7        1.0  0.8885017489225557  0.547088016752764  0.09600811521150716  1.0000
  C   C8        1.0  0.11149825051728446  0.04708801670116556  0.4039918845198697  1.0000
  C   C9        1.0  0.12890665442983903  0.48043253240875444  0.8169806974901588  1.0000
  C   C10       1.0  0.87109334580911  0.9804325324603528  0.6830193026522068  1.0000
  C   C11       1.0  0.871093344031894  0.5195674673824301  0.1830193024310964  1.0000
  C   C12       1.0  0.12890665540794605  0.019567467642843922  0.31698069730028045  1.0000
  C   C13       1.0  0.0025617736119089587  0.4657255934066743  0.7159076720066454  1.0000
  C   C14       1.0  0.997438226644365  0.9657255931462604  0.7840923273190584  1.0000
  C   C15       1.0  0.9974382248498243  0.5342744066965224  0.2840923279146098  1.0000
  C   C16       1.0  0.002561774572690917  0.03427440664492406  0.21590767263342886  1.0000
  C   C17       1.0  0.8598726685699308  0.42592308215214525  0.6996596692007107  1.0000
  C   C18       1.0  0.1401273316690181  0.9259230822037436  0.8003403309416549  1.0000
  C   C19       1.0  0.14012733264712507  0.5740769176390392  0.3003403307517765  1.0000
  C   C20       1.0  0.859872666792715  0.07407691758744087  0.19965966897960033  1.0000
  C   C21       1.0  0.8426452253371284  0.400299024595179  0.7904799260609509  1.0000
  C   C22       1.0  0.15735477490182065  0.9002990246467774  0.7095200740814147  1.0000
  C   C23       1.0  0.15735477587992763  0.5997009755080177  0.20952007389153637  1.0000
  C   C24       1.0  0.8426452235599124  0.09970097545641932  0.2904799258398405  1.0000
  C   C25       1.0  0.013849481321892797  0.3461328632500586  0.9888794901988106  1.0000
  C   C26       1.0  0.9861505189170563  0.8461328633016569  0.5111205099435548  1.0000
  C   C27       1.0  0.9861505198951631  0.6538671368531381  0.011120509753676608  1.0000
  C   C28       1.0  0.013849482299999796  0.15386713680153974  0.4888794900089323  1.0000
  C   C29       1.0  0.017281280605455102  0.28023868707969446  0.06777009997858766  1.0000
  C   C30       1.0  0.982718718834385  0.7802386871312927  0.4322298997527892  1.0000
  C   C31       1.0  0.9827187178562781  0.71976131271149  0.9322298999426675  1.0000
  C   C32       1.0  0.017281279627348108  0.21976131297190393  0.5677701001684661  1.0000
  C   C33       1.0  0.17432601807306233  0.25794396709730716  0.15646585851044767  1.0000
  C   C34       1.0  0.8256739813667778  0.7579439671489056  0.3435341412209292  1.0000
  C   C35       1.0  0.8256739831439937  0.7420560330058895  0.8435341414420395  1.0000
  C   C36       1.0  0.17432601709495535  0.24205603295429118  0.6564658587003259  1.0000
  C   C37       1.0  0.22183796020504615  0.2150283286725108  0.15770929138630368  1.0000
  C   C38       1.0  0.778162039234794  0.7150283287241092  0.34229070834507314  1.0000
  C   C39       1.0  0.7781620382566868  0.7849716714306859  0.8422907085349516  1.0000
  C   C40       1.0  0.22183796198226205  0.2849716713790876  0.657709291607414  1.0000
  C   C41       1.0  0.10630589064016398  0.1932936340584694  0.06476386925557366  1.0000
  C   C42       1.0  0.8936941087823511  0.6932936341100677  0.4352361312924651  1.0000
  C   C43       1.0  0.893694110576892  0.8067063660447272  0.9352361306969136  1.0000
  C   C44       1.0  0.10630588967938201  0.306706365993129  0.5647638686287901  1.0000
  C   C45       1.0  0.9463287411990228  0.2124047077483951  0.9734184792660757  1.0000
  C   C46       1.0  0.053671259039926277  0.7124047077999934  0.5265815208762898  1.0000
  C   C47       1.0  0.0536712572627104  0.7875952920427894  0.026581520655179432  1.0000
  C   C48       1.0  0.9463287421598047  0.28759529230320324  0.47341847989285923  1.0000
  C   C49       1.0  0.9059209544726695  0.2553807813735481  0.9777326566435103  1.0000
  C   C50       1.0  0.09407904576627951  0.7553807814251465  0.5222673434988553  1.0000
  C   C51       1.0  0.09407904674438651  0.7446192184176365  0.022267343308976933  1.0000
  C   C52       1.0  0.9059209554507764  0.24461921867805023  0.47773265645363194  1.0000
  C   C53       1.0  0.683868793687783  0.3961016881520439  0.26232888960359474  1.0000
  C   C54       1.0  0.31613120850738  0.89610168789163  0.23767111015901413  1.0000
  C   C55       1.0  0.31613120752927304  0.6038983119511528  0.7376711103488923  1.0000
  C   C56       1.0  0.6838687927096759  0.10389831189955448  0.7623288897934731  1.0000
  C   C57       1.0  0.561744922660917  0.41301113209513757  0.36974396076366933  1.0000
  C   C58       1.0  0.438255076778923  0.9130111321467359  0.13025603896770754  1.0000
  C   C59       1.0  0.43825507855613893  0.5869888680080592  0.6302560391888179  1.0000
  C   C60       1.0  0.5617449216828101  0.08698886795646077  0.8697439609535477  1.0000
  N   N1        1.0  0.9417162643805009  0.3872565043026214  0.9880963913198597  1.0000
  N   N2        1.0  0.058283735858448045  0.8872565043542197  0.5119036088225059  1.0000
  N   N3        1.0  0.058283736836555036  0.6127434954885632  0.011903608632627488  1.0000
  N   N4        1.0  0.941716265358608  0.11274349543696481  0.48809639112998143  1.0000
  N   N5        1.0  0.9631076423737294  0.32331406607131696  0.07537853009709235  1.0000
  N   N6        1.0  0.03689235706611074  0.8233140661229152  0.42462146963428454  1.0000
  N   N7        1.0  0.03689235608800375  0.6766859340318798  0.9246214698241628  1.0000
  N   N8        1.0  0.9631076413956224  0.17668593398028143  0.5753785302869706  1.0000
  O   O1        1.0  0.6901487421080051  0.4182249649265467  0.1790242892368762  1.0000
  O   O2        1.0  0.30985125731450996  0.9182249649781451  0.32097571131116254  1.0000
  O   O3        1.0  0.309851256353728  0.5817750351766501  0.8209757106843789  1.0000
  O   O4        1.0  0.6901487439025461  0.08177503512505163  0.6790242886413247  1.0000
  O   O5        1.0  0.7877732280120269  0.35659650859809916  0.2656817969355347  1.0000
  O   O6        1.0  0.2122267741831361  0.8565965086496975  0.23431820282707422  1.0000
  O   O7        1.0  0.21222677320502914  0.6434034915050976  0.7343182030169525  1.0000
  O   O8        1.0  0.7877732270339198  0.1434034914534992  0.7656817971254131  1.0000
  F   F1        1.0  0.23961093080389095  0.46501074759166244  0.00430042358908659  1.0000
  F   F2        1.0  0.760389068635949  0.9650107476432608  0.49569957614229027  1.0000
  F   F3        1.0  0.760389070413165  0.5349892525115343  0.9956995763634007  1.0000
  F   F4        1.0  0.23961092982578397  0.034989252459935914  0.5043004237789649  1.0000
  F   F5        1.0  0.019499227377822836  0.4915602888303112  0.6276902668586813  1.0000
  F   F6        1.0  0.9805007728611261  0.9915602888819096  0.8723097332836841  1.0000
  F   F7        1.0  0.9805007710839102  0.5084397112728856  0.37230973306257387  1.0000
  F   F8        1.0  0.019499228355929835  0.008439711221287127  0.12769026666880307  1.0000
  F   F9        1.0  0.6890163507353158  0.3616540972712378  0.7778516575674002  1.0000
  F   F10       1.0  0.3109836495036333  0.8616540973228362  0.7221483425749654  1.0000
  F   F11       1.0  0.3109836477264174  0.6383459028319589  0.22214834235385508  1.0000
  F   F12       1.0  0.6890163517134227  0.13834590278036055  0.27785165737752177  1.0000
  F   F13       1.0  0.2905422672159888  0.2802665613123502  0.24531516389542773  1.0000
  F   F14       1.0  0.7094577322238512  0.7802665613639486  0.25468483583594914  1.0000
  F   F15       1.0  0.7094577312457444  0.7197334387908465  0.7546848360258274  1.0000
  F   F16       1.0  0.2905422662378818  0.21973343873924814  0.745315164085306  1.0000
  F   F17       1.0  0.155343968771437  0.15097437166973027  0.06264751401123861  1.0000
  F   F18       1.0  0.844656030651078  0.6509743717213285  0.4373524865368001  1.0000
  F   F19       1.0  0.8446560296729712  0.8490256284334665  0.9373524867266784  1.0000
  F   F20       1.0  0.15534397056597796  0.34902562838186807  0.5626475134156872  1.0000
  F   F21       1.0  0.740789056515225  0.27471803082499235  0.8895019576511883  1.0000
  F   F22       1.0  0.25921094372372394  0.7747180308765907  0.6104980424911773  1.0000
  F   F23       1.0  0.2592109447018309  0.7252819692782043  0.11049804230129898  1.0000
  F   F24       1.0  0.7407890547380092  0.22528196922660598  0.3895019574300779  1.0000
