data_image0
_chemical_formula_structural       H22C78N2O2F32Br8
_chemical_formula_sum              "H22 C78 N2 O2 F32 Br8"
_cell_length_a       7.774859017816179
_cell_length_b       12.819937934945784
_cell_length_c       19.198764363532746
_cell_angle_alpha    97.73587857103226
_cell_angle_beta     92.48778738600173
_cell_angle_gamma    107.32027463701313

_space_group_name_H-M_alt    "P 1"
_space_group_IT_number       1

loop_
  _space_group_symop_operation_xyz
  'x, y, z'

loop_
  _atom_site_type_symbol
  _atom_site_label
  _atom_site_symmetry_multiplicity
  _atom_site_fract_x
  _atom_site_fract_y
  _atom_site_fract_z
  _atom_site_occupancy
  H   H1        1.0  0.7788428869766112  0.21599447761650342  0.27525479885051557  1.0000
  H   H2        1.0  0.22115711338957408  0.7840055224672917  0.7247452011959434  1.0000
  H   H3        1.0  0.8402036920611659  0.03986831110767055  0.23317325803845063  1.0000
  H   H4        1.0  0.15979630701895609  0.9601316889761382  0.7668267420091623  1.0000
  H   H5        1.0  0.826357070643848  0.9741854453337214  0.10452331999177207  1.0000
  H   H6        1.0  0.17364292972233727  0.02581455475007354  0.895476680054687  1.0000
  H   H7        1.0  0.753646342797183  0.08631402783863394  0.017704786653260262  1.0000
  H   H8        1.0  0.24635365628293893  0.9136859722451748  0.9822952133943526  1.0000
  H   H9        1.0  0.6913058180276939  0.2624186289083752  0.059933421866743594  1.0000
  H   H10       1.0  0.30869418221638517  0.7375813710476313  0.9400665776520071  1.0000
  H   H11       1.0  0.6130119639761522  0.5368772741648878  0.3065612323568965  1.0000
  H   H12       1.0  0.3869880363900331  0.4631227259189072  0.6934387676895626  1.0000
  H   H13       1.0  0.6155895807328517  0.7010151710311532  0.24729793243227646  1.0000
  H   H14       1.0  0.38441041963333356  0.2989848290526418  0.7527020676141825  1.0000
  H   H15       1.0  0.5254887555240226  0.8406115633966634  0.1892041916320168  1.0000
  H   H16       1.0  0.47451124484216256  0.1593884366871315  0.8107958084144422  1.0000
  H   H17       1.0  0.3884354729301307  0.7924801496152284  0.06537963494886698  1.0000
  H   H18       1.0  0.6115645274360546  0.20751985046856655  0.934620365097592  1.0000
  H   H19       1.0  0.33716075620662256  0.6018037527836395  0.9999668926467018  1.0000
  H   H20       1.0  0.6628392441595627  0.3981962473001555  3.310739975726611e-05  1.0000
  H   H21       1.0  0.4313346372568155  0.4635711110948374  0.05718374517148153  1.0000
  H   H22       1.0  0.5686653627086624  0.5364288881718504  0.942816254874887  1.0000
  C   C1        1.0  0.9986534392184946  0.664233214724264  0.14164997494631634  1.0000
  C   C2        1.0  0.001346559338813753  0.335766784414649  0.8583500245734976  1.0000
  C   C3        1.0  0.038359751434826464  0.5726570629070771  0.16179989899750322  1.0000
  C   C4        1.0  0.9616402489313589  0.42734293717671795  0.8382001010489558  1.0000
  C   C5        1.0  0.08126704823255232  0.569788320101624  0.23257007294412937  1.0000
  C   C6        1.0  0.9187329508475695  0.43021167998218485  0.7674299271034836  1.0000
  C   C7        1.0  0.08238445424814733  0.6562129017782425  0.2859152417885304  1.0000
  C   C8        1.0  0.917615546118038  0.3437870983055525  0.7140847582579286  1.0000
  C   C9        1.0  0.04145270769472847  0.7470409710966956  0.26470391303398705  1.0000
  C   C10       1.0  0.9585472926714568  0.2529590289870994  0.7352960870124721  1.0000
  C   C11       1.0  0.0020073940039527457  0.7518837153686568  0.19397434106426226  1.0000
  C   C12       1.0  0.9979926050761693  0.24811628471515199  0.8060256589833507  1.0000
  C   C13       1.0  0.18969712811022307  0.6279325215494217  0.5040983603451616  1.0000
  C   C14       1.0  0.8103028722559622  0.37206747853437333  0.4959016397012974  1.0000
  C   C15       1.0  0.03068262401836284  0.6466726137818951  0.4807519438464303  1.0000
  C   C16       1.0  0.9693173750617591  0.3533273863019137  0.5192480562011828  1.0000
  C   C17       1.0  0.9978165139398495  0.6577070587778884  0.41073031214662503  1.0000
  C   C18       1.0  0.0021834851402724237  0.3422929413059204  0.589269687900988  1.0000
  C   C19       1.0  0.12055560328928053  0.6491194002850592  0.3607500108941977  1.0000
  C   C20       1.0  0.8794443970769048  0.35088059979873587  0.6392499891522613  1.0000
  C   C21       1.0  0.27837543570485157  0.6288408743271002  0.38486876183439095  1.0000
  C   C22       1.0  0.7216245646613336  0.3711591257566948  0.615131238212068  1.0000
  C   C23       1.0  0.31334892975097317  0.6183913203542131  0.4548699396704825  1.0000
  C   C24       1.0  0.6866510706152121  0.38160867972958196  0.5451300603759764  1.0000
  C   C25       1.0  0.2648730438236311  0.1435444486470915  0.13527924990920484  1.0000
  C   C26       1.0  0.7351269565425541  0.8564555514367035  0.8647207501372541  1.0000
  C   C27       1.0  0.30419654152681835  0.05461892110864006  0.15934063329107584  1.0000
  C   C28       1.0  0.6958034574311975  0.9453810788473803  0.8406593662288288  1.0000
  C   C29       1.0  0.3160879487688615  0.04920428522213292  0.23122112324483032  1.0000
  C   C30       1.0  0.6839120515973237  0.9507957148616621  0.7687788768016286  1.0000
  C   C31       1.0  0.28628429055989424  0.13038052214495296  0.28145057165712933  1.0000
  C   C32       1.0  0.7137157085202277  0.8696194779388559  0.7185494283904836  1.0000
  C   C33       1.0  0.24749887912853805  0.21937744807967902  0.2563015685349908  1.0000
  C   C34       1.0  0.752501121115541  0.7806225518763275  0.7436984309837598  1.0000
  C   C35       1.0  0.2366580564709231  0.2261285505345992  0.18450733246353912  1.0000
  C   C36       1.0  0.7633419438952621  0.7738714495491957  0.8154926675829198  1.0000
  C   C37       1.0  0.31399167612031526  0.11853288815048388  0.5050656044378018  1.0000
  C   C38       1.0  0.6860083229598066  0.8814671119333249  0.4949343956098112  1.0000
  C   C39       1.0  0.1557907365610588  0.12137920583606411  0.46926953762327905  1.0000
  C   C40       1.0  0.8442092638051264  0.8786207942477309  0.5307304624231799  1.0000
  C   C41       1.0  0.1475913990638485  0.12492854364369156  0.39704866479883844  1.0000
  C   C42       1.0  0.8524086013023366  0.8750714564401033  0.6029513352476206  1.0000
  C   C43       1.0  0.2942197357362678  0.12323368155481333  0.35754514450025016  1.0000
  C   C44       1.0  0.7057802646299174  0.8767663185289816  0.6424548555462088  1.0000
  C   C45       1.0  0.44969501100409215  0.11663844966634951  0.39392813947102967  1.0000
  C   C46       1.0  0.5503049892399868  0.8833615502896569  0.606071860047721  1.0000
  C   C47       1.0  0.4612994530165245  0.11637858402870534  0.46644686570716576  1.0000
  C   C48       1.0  0.5387005469489534  0.8836214152379827  0.5335531343392027  1.0000
  C   C49       1.0  0.6839123034475714  0.349107304201409  0.19621751349058814  1.0000
  C   C50       1.0  0.3160876969186139  0.6508926958823861  0.8037824865558708  1.0000
  C   C51       1.0  0.7288709321018808  0.2498134857518091  0.17021368816535093  1.0000
  C   C52       1.0  0.27112906697824113  0.7501865143319998  0.829786311882262  1.0000
  C   C53       1.0  0.7726118946464567  0.18688649086359585  0.21899224814775814  1.0000
  C   C54       1.0  0.22738810531902112  0.8131135084030919  0.7810077518986103  1.0000
  C   C55       1.0  0.8065925554377901  0.08814702275374148  0.19505149173540792  1.0000
  C   C56       1.0  0.1934074436423319  0.9118529773300674  0.804948508312205  1.0000
  C   C57       1.0  0.799312953892863  0.051533743469512755  0.12268346606297459  1.0000
  C   C58       1.0  0.20068704647332217  0.9484662566142822  0.8773165339834844  1.0000
  C   C59       1.0  0.7591618204404357  0.114708997714439  0.07409026362259485  1.0000
  C   C60       1.0  0.2408381786396863  0.8852910023693698  0.9259097364250181  1.0000
  C   C61       1.0  0.7241413009049671  0.21339504522083336  0.09757430265273959  1.0000
  C   C62       1.0  0.2758586994612181  0.7866049548629617  0.9024256973937195  1.0000
  C   C63       1.0  0.6274434592846888  0.4852698681946667  0.25914021668949655  1.0000
  C   C64       1.0  0.3725565410814965  0.5147301318891283  0.7408597833569625  1.0000
  C   C65       1.0  0.5918490907610601  0.49463155341144904  0.19005875298521108  1.0000
  C   C66       1.0  0.4081509096051252  0.5053684466723459  0.8099412470612479  1.0000
  C   C67       1.0  0.5324837814186785  0.5733184276037384  0.1556904875117144  1.0000
  C   C68       1.0  0.46751621894750683  0.4266815724800566  0.8443095125347447  1.0000
  C   C69       1.0  0.5555921161505447  0.6797442457957318  0.19290802077562227  1.0000
  C   C70       1.0  0.4444078829295773  0.3202557542880771  0.8070919792719907  1.0000
  C   C71       1.0  0.5050262451916606  0.7580124545461858  0.16030163500416436  1.0000
  C   C72       1.0  0.49497375517452463  0.24198754553760923  0.8396983650422946  1.0000
  C   C73       1.0  0.42834940196975574  0.7309071421223249  0.09044416401655116  1.0000
  C   C74       1.0  0.5716505971103661  0.26909285796148397  0.9095558360310618  1.0000
  C   C75       1.0  0.40129340367313077  0.6247354088931124  0.05378423971198869  1.0000
  C   C76       1.0  0.598706595406991  0.37526459119069633  0.9462157603356242  1.0000
  C   C77       1.0  0.45341850477194917  0.5463696850951042  0.08583995170584234  1.0000
  C   C78       1.0  0.5465814943081728  0.4536303149887046  0.9141600483417706  1.0000
  N   N1        1.0  0.6848136327140301  0.39396626777156335  0.2620635630438212  1.0000
  N   N2        1.0  0.3151863676521552  0.6060337323122317  0.7379364370026378  1.0000
  O   O1        1.0  0.6270092376418704  0.4065955621891358  0.1491155820021331  1.0000
  O   O2        1.0  0.37299076272431475  0.5934044378946591  0.8508844180443258  1.0000
  F   F1        1.0  0.03117410247728929  0.4848547353366153  0.11321564822065473  1.0000
  F   F2        1.0  0.968825897888896  0.5151452647471797  0.8867843518258042  1.0000
  F   F3        1.0  0.9668441994856968  0.8428768784283212  0.17676610473602095  1.0000
  F   F4        1.0  0.033155800880488466  0.15712312165547382  0.8232338953104381  1.0000
  F   F5        1.0  0.041414123019624174  0.8336758988446349  0.3133938382745122  1.0000
  F   F6        1.0  0.9585858760604977  0.16632410123917402  0.6866061617731007  1.0000
  F   F7        1.0  0.11557038631302247  0.4792195029144982  0.24987689106356406  1.0000
  F   F8        1.0  0.8844296140531628  0.5207804971692968  0.750123108982895  1.0000
  F   F9        1.0  0.9040039455435489  0.6523287305814943  0.5258337416600217  1.0000
  F   F10       1.0  0.09599605482263632  0.34767126950230065  0.4741662583864373  1.0000
  F   F11       1.0  0.4701174906392058  0.6012738365618382  0.4746976227332812  1.0000
  F   F12       1.0  0.5298825097269795  0.3987261635219568  0.5253023773131779  1.0000
  F   F13       1.0  0.40398656498679497  0.6215564141592641  0.3394220117720728  1.0000
  F   F14       1.0  0.5960134353793903  0.378443585924531  0.6605779882743863  1.0000
  F   F15       1.0  0.8392807330790002  0.6729767576938479  0.39069887627811484  1.0000
  F   F16       1.0  0.16071926716507892  0.32702324226215856  0.6093011232406357  1.0000
  F   F17       1.0  0.33029994349774566  0.9724383581184965  0.1133527936162587  1.0000
  F   F18       1.0  0.6697000568684396  0.027561641965298467  0.8866472064302003  1.0000
  F   F19       1.0  0.198154180956394  0.31265047084593894  0.16264112010070206  1.0000
  F   F20       1.0  0.8018458194097914  0.6873495292378561  0.837358879945757  1.0000
  F   F21       1.0  0.22156296076193902  0.3014196646206059  0.302184776513053  1.0000
  F   F22       1.0  0.778437038318183  0.6985803354632031  0.69781522353456  1.0000
  F   F23       1.0  0.35467794180681  0.9612933534007425  0.25202205298100405  1.0000
  F   F24       1.0  0.6453220572733119  0.038706646683066386  0.7479779470666089  1.0000
  F   F25       1.0  0.008175486174101621  0.11954449309316596  0.5040037686308898  1.0000
  F   F26       1.0  0.9918245141920835  0.8804555069906289  0.49599623141556914  1.0000
  F   F27       1.0  0.6169396267803579  0.11409299297256106  0.4991842787844352  1.0000
  F   F28       1.0  0.38306037358582734  0.8859070071112339  0.5008157212620238  1.0000
  F   F29       1.0  0.594600482526711  0.11294803853586217  0.3586222535183305  1.0000
  F   F30       1.0  0.40539951783947425  0.8870519615479329  0.6413777465281285  1.0000
  F   F31       1.0  0.9917265996918303  0.1280066883969781  0.364756159031248  1.0000
  F   F32       1.0  0.00827339938829151  0.8719933116868306  0.6352438410163649  1.0000
  Br  Br1       1.0  0.9401455322710763  0.6689363995932421  0.04653749996974233  1.0000
  Br  Br2       1.0  0.05985446769440158  0.3310635996734457  0.9534625000766263  1.0000
  Br  Br3       1.0  0.237937058620647  0.6202729384523208  0.6002159776372494  1.0000
  Br  Br4       1.0  0.7620629400587675  0.3797270608143808  0.39978402241027294  1.0000
  Br  Br5       1.0  0.2514952699556102  0.15433221554198598  0.03889775797167612  1.0000
  Br  Br6       1.0  0.748504730410575  0.845667784541809  0.9611022420747829  1.0000
  Br  Br7       1.0  0.3278102133142217  0.11394680647835351  0.6021823423966132  1.0000
  Br  Br8       1.0  0.6721897870519636  0.8860531936054415  0.397817657649846  1.0000
