data_image0
_chemical_formula_structural       H48C44N16O12
_chemical_formula_sum              "H48 C44 N16 O12"
_cell_length_a       7.014524419353175
_cell_length_b       10.156005060189324
_cell_length_c       15.138946258303589
_cell_angle_alpha    90.0
_cell_angle_beta     90.0
_cell_angle_gamma    90.0

_space_group_name_H-M_alt    "P 1"
_space_group_IT_number       1

loop_
  _space_group_symop_operation_xyz
  'x, y, z'

loop_
  _atom_site_type_symbol
  _atom_site_label
  _atom_site_symmetry_multiplicity
  _atom_site_fract_x
  _atom_site_fract_y
  _atom_site_fract_z
  _atom_site_occupancy
  H   H1        1.0  0.4308015810255962  0.4029949045657234  0.6765288280472218  1.0000
  H   H2        1.0  0.06919841902050991  0.5970050954156351  0.17652882799119374  1.0000
  H   H3        1.0  0.9308015810717023  0.09700509542495588  0.3234711720648344  1.0000
  H   H4        1.0  0.569198419066616  0.9029949045564025  0.8234711721208625  1.0000
  H   H5        1.0  0.44504845708240737  0.5109677928718226  0.5287628744708286  1.0000
  H   H6        1.0  0.054951542963698745  0.4890322071095359  0.028762874414800497  1.0000
  H   H7        1.0  0.9450484571285135  0.9890322071002152  0.4712371256412276  1.0000
  H   H8        1.0  0.5549515430098049  0.010967792881143319  0.9712371256972556  1.0000
  H   H9        1.0  0.30378697864687126  0.878163387783281  0.6599191891919363  1.0000
  H   H10       1.0  0.19621302139923485  0.12183661219807757  0.15991918913590814  1.0000
  H   H11       1.0  0.8037869786929773  0.6218366121887567  0.34008081092012  1.0000
  H   H12       1.0  0.696213021445341  0.37816338779260167  0.8400808109761481  1.0000
  H   H13       1.0  0.2983817953823591  0.754403456338685  0.8011521629748545  1.0000
  H   H14       1.0  0.20161820466374705  0.2455965436426735  0.30115216291882646  1.0000
  H   H15       1.0  0.7983817954284651  0.7455965436333527  0.19884783713720164  1.0000
  H   H16       1.0  0.7016182047098531  0.2544034563480057  0.6988478365326818  1.0000
  H   H17       1.0  0.4406092936925005  0.07812964598751472  0.3987920425233424  1.0000
  H   H18       1.0  0.05939070635360556  0.9218703539938438  0.8987920425793705  1.0000
  H   H19       1.0  0.9406092937386067  0.4218703540031645  0.6012079575887137  1.0000
  H   H20       1.0  0.5593907063997117  0.5781296459781939  0.10120795753268566  1.0000
  H   H21       1.0  0.45213871538456407  0.9687552951865693  0.5463515431573266  1.0000
  H   H22       1.0  0.04786128466154201  0.031244704794789125  0.04635154310129847  1.0000
  H   H23       1.0  0.9521387154306702  0.5312447047854684  0.4536484569547296  1.0000
  H   H24       1.0  0.547861284707648  0.4687552951958901  0.9536484570107577  1.0000
  H   H25       1.0  0.3164769109471152  0.6025019753077921  0.4124298926403383  1.0000
  H   H26       1.0  0.18352308909899087  0.3974980246735663  0.9124298926963664  1.0000
  H   H27       1.0  0.8164769109932213  0.8974980246642456  0.5875701074717179  1.0000
  H   H28       1.0  0.6835230891450969  0.10250197531711293  0.08757010741568978  1.0000
  H   H29       1.0  0.317477091369988  0.7259247042815637  0.2723933627638157  1.0000
  H   H30       1.0  0.18252290867611812  0.27407529569979466  0.7723933628198438  1.0000
  H   H31       1.0  0.8174770914160941  0.774075295690474  0.7276066373482404  1.0000
  H   H32       1.0  0.6825229087222242  0.22592470429088454  0.22760663729221234  1.0000
  H   H33       1.0  0.5112232427484616  0.8965019765193255  0.15333266400406095  1.0000
  H   H34       1.0  0.9887767573898567  0.10349802346203295  0.6533326633995411  1.0000
  H   H35       1.0  0.011223242702355503  0.6034980234527122  0.8466673361079952  1.0000
  H   H36       1.0  0.4887767573437506  0.39650197652864627  0.34666733605196715  1.0000
  H   H37       1.0  0.64530712695379  0.8267714096475127  0.06418814846290957  1.0000
  H   H38       1.0  0.8546928731845282  0.17322859033384566  0.5641881485189376  1.0000
  H   H39       1.0  0.14530712690768394  0.6732285903245249  0.9358118516491466  1.0000
  H   H40       1.0  0.3546928731384221  0.32677140965683354  0.4358118515931185  1.0000
  H   H41       1.0  0.19576808745739993  0.8752307129939828  0.16010006896421838  1.0000
  H   H42       1.0  0.30423191258870613  0.12476928698737555  0.6601000690202464  1.0000
  H   H43       1.0  0.695768087503506  0.6247692869780548  0.83989993048729  1.0000
  H   H44       1.0  0.8042319126348123  0.3752307130033037  0.3398999310918097  1.0000
  H   H45       1.0  0.0636570226725613  0.795939646750167  0.07548003609387574  1.0000
  H   H46       1.0  0.43634297737354477  0.20406035323119134  0.5754800361499038  1.0000
  H   H47       1.0  0.5636570227186674  0.7040603532218705  0.9245199640181804  1.0000
  H   H48       1.0  0.9363429774196509  0.29593964675948786  0.42451996396215236  1.0000
  C   C1        1.0  0.40709020159962833  0.5077082188755703  0.6673510149003  1.0000
  C   C2        1.0  0.09290979702086437  0.4922917811057882  0.167351014844272  1.0000
  C   C3        1.0  0.9070902016457345  0.9922917810964674  0.33264898521175607  1.0000
  C   C4        1.0  0.5929097970669704  0.007708218884891009  0.8326489852677842  1.0000
  C   C5        1.0  0.41173387635969194  0.5703625555196422  0.5866727510924686  1.0000
  C   C6        1.0  0.08826612368641418  0.42963744446171626  0.08667275103644055  1.0000
  C   C7        1.0  0.9117338764057981  0.9296374444523954  0.41332724901958756  1.0000
  C   C8        1.0  0.5882661237325203  0.07036255552896295  0.9133272490756156  1.0000
  C   C9        1.0  0.37736816236560927  0.7064789617056617  0.5797249874763379  1.0000
  C   C10       1.0  0.12263183768049685  0.2935210382756967  0.07972498742030983  1.0000
  C   C11       1.0  0.8773681624117153  0.7935210382663759  0.42027501263571826  1.0000
  C   C12       1.0  0.6226318377266029  0.2064789617149825  0.9202750120311984  1.0000
  C   C13       1.0  0.3360835388206385  0.7735338623249516  0.6586986986977669  1.0000
  C   C14       1.0  0.16391646122546752  0.22646613765640689  0.1586986986417388  1.0000
  C   C15       1.0  0.8360835388667446  0.726466137647086  0.3413013014142893  1.0000
  C   C16       1.0  0.6639164612715736  0.27353386233427235  0.8413013014703175  1.0000
  C   C17       1.0  0.33216143400564996  0.7080586990044241  0.738406075909582  1.0000
  C   C18       1.0  0.1678385660404561  0.2919413009769344  0.23840607585355383  1.0000
  C   C19       1.0  0.832161434051756  0.7919413009676136  0.26159392420247424  1.0000
  C   C20       1.0  0.6678385660865622  0.20805869901374485  0.7615939242585023  1.0000
  C   C21       1.0  0.41445173987548506  0.973570483807506  0.4075908471248806  1.0000
  C   C22       1.0  0.08554826017062105  0.026429516173852346  0.9075908471809087  1.0000
  C   C23       1.0  0.9144517399215911  0.5264295161645315  0.5924091523266277  1.0000
  C   C24       1.0  0.5855482602167271  0.4735704838168268  0.09240915227059959  1.0000
  C   C25       1.0  0.41711486553920935  0.9103810204115478  0.4882201887694806  1.0000
  C   C26       1.0  0.08288513450689679  0.08961897956981059  0.9882201888255088  1.0000
  C   C27       1.0  0.9171148655853154  0.5896189795604898  0.5117798113425756  1.0000
  C   C28       1.0  0.582885134553003  0.4103810204208686  0.011779811286547457  1.0000
  C   C29       1.0  0.3813898049337309  0.774383334134868  0.4944656743129768  1.0000
  C   C30       1.0  0.11861019511237514  0.2256166658464904  0.9944656743690049  1.0000
  C   C31       1.0  0.881389804979837  0.7256166658371695  0.5055343257990794  1.0000
  C   C32       1.0  0.6186101951584811  0.2743833341441888  0.00553432574305132  1.0000
  C   C33       1.0  0.34781807491732664  0.7073408586767761  0.41478861955506097  1.0000
  C   C34       1.0  0.15218192512877945  0.2926591422892214  0.9147886189505411  1.0000
  C   C35       1.0  0.8478180749634328  0.7926591422799006  0.5852113805569953  1.0000
  C   C36       1.0  0.6521819251748855  0.20734085868609695  0.08521138050096716  1.0000
  C   C37       1.0  0.3462216202854056  0.7734510197116392  0.3352782857800283  1.0000
  C   C38       1.0  0.15377837976070055  0.22654898026971926  0.8352782858360565  1.0000
  C   C39       1.0  0.8462216203315116  0.7265489802603985  0.6647217136714799  1.0000
  C   C40       1.0  0.6537783798068066  0.27345101972096  0.1647217142759998  1.0000
  C   C41       1.0  0.35444607950046375  0.7974589488683281  0.06004069533580957  1.0000
  C   C42       1.0  0.14555392054564234  0.20254105111303028  0.5600406947312898  1.0000
  C   C43       1.0  0.8544460795465698  0.7025410511037095  0.9399593047762466  1.0000
  C   C44       1.0  0.645553919166135  0.29745894887764895  0.43995930472021855  1.0000
  N   N1        1.0  0.3686244648127457  0.5756391834537958  0.7434525030978743  1.0000
  N   N2        1.0  0.1313755352333604  0.42436081652756263  0.24345250304184618  1.0000
  N   N3        1.0  0.8686244648588518  0.9243608165182419  0.2565474970141819  1.0000
  N   N4        1.0  0.6313755352794664  0.07563918346311652  0.75654749707021  1.0000
  N   N5        1.0  0.37727888617772226  0.9061654976989978  0.3313474309513866  1.0000
  N   N6        1.0  0.12272111386838383  0.09383450228236051  0.8313474310074147  1.0000
  N   N7        1.0  0.8772788862238283  0.5938345022730397  0.6686525691606695  1.0000
  N   N8        1.0  0.6227211139144899  0.4061654977083187  0.16865256910464152  1.0000
  N   N9        1.0  0.5165113532150327  0.8493424854437005  0.0937294766616738  1.0000
  N   N10       1.0  0.9834886469232855  0.15065751453765788  0.5937294767177019  1.0000
  N   N11       1.0  0.01651135316892659  0.6506575145283371  0.9062705234503824  1.0000
  N   N12       1.0  0.48348864687717946  0.3493424854530214  0.40627052339435427  1.0000
  N   N13       1.0  0.19171211611862976  0.8125782786727127  0.10753154296370544  1.0000
  N   N14       1.0  0.3082878839274763  0.1874217213086458  0.6075315423591855  1.0000
  N   N15       1.0  0.6917121147391224  0.687421721299325  0.8924684571483507  1.0000
  N   N16       1.0  0.8082878839735824  0.3125782786820334  0.39246845709232264  1.0000
  O   O1        1.0  0.36674636314648695  0.5153519054964346  0.8190485611374014  1.0000
  O   O2        1.0  0.13325363689961917  0.48464809448492385  0.3190485610813733  1.0000
  O   O3        1.0  0.866746363192593  0.9846480944756031  0.18095143897465477  1.0000
  O   O4        1.0  0.6332536369457253  0.015351905505755383  0.6809514390306829  1.0000
  O   O5        1.0  0.3708907153879295  0.9689809577365993  0.2557207472664486  1.0000
  O   O6        1.0  0.1291092846581766  0.031019042244759116  0.7557207473224767  1.0000
  O   O7        1.0  0.8708907154340356  0.5310190422354384  0.7442792528456076  1.0000
  O   O8        1.0  0.6291092847042826  0.4689809577459201  0.24427925278957946  1.0000
  O   O9        1.0  0.3546299921826181  0.7354677647099123  0.9871003691425039  1.0000
  O   O10       1.0  0.14537000786348805  0.26453223527144615  0.48710036908647586  1.0000
  O   O11       1.0  0.8546299922287242  0.7645322352621253  0.012899630969552243  1.0000
  O   O12       1.0  0.6453700079095941  0.23546776471923306  0.5128996310255803  1.0000
