data_image0
_chemical_formula_structural       H82C60N4O15F12P2
_chemical_formula_sum              "H82 C60 N4 O15 F12 P2"
_cell_length_a       10.856647312066418
_cell_length_b       11.737367279206566
_cell_length_c       14.126566936736712
_cell_angle_alpha    69.75035695970327
_cell_angle_beta     75.46051172399002
_cell_angle_gamma    72.43550834121515

_space_group_name_H-M_alt    "P 1"
_space_group_IT_number       1

loop_
  _space_group_symop_operation_xyz
  'x, y, z'

loop_
  _atom_site_type_symbol
  _atom_site_label
  _atom_site_symmetry_multiplicity
  _atom_site_fract_x
  _atom_site_fract_y
  _atom_site_fract_z
  _atom_site_occupancy
  H   H1        1.0  0.7118308046906776  0.9756650991293244  0.22258852613394728  1.0000
  H   H2        1.0  0.5759841178589686  0.36402046286254724  0.057934378159205026  1.0000
  H   H3        1.0  0.5652571634040482  0.25850464982740556  0.38186674222499534  1.0000
  H   H4        1.0  0.40258969535311406  0.9490716476325338  0.12272846528767607  1.0000
  H   H5        1.0  0.2567811192642795  0.33584894737841325  0.956683333238256  1.0000
  H   H6        1.0  0.28485942855842283  0.2373919056299643  0.27420187858969675  1.0000
  H   H7        1.0  0.5309104974994902  0.08787755765191593  0.5060785767057481  1.0000
  H   H8        1.0  0.6936034153373497  0.10220052037726768  0.4925317593082274  1.0000
  H   H9        1.0  0.6268767772202758  0.9429565247789634  0.6526829588349771  1.0000
  H   H10       1.0  0.5997886580287005  0.8566956636471504  0.5810266729700556  1.0000
  H   H11       1.0  0.7499306879599694  0.6921805608965556  0.6664625732768199  1.0000
  H   H12       1.0  0.8212687702592477  0.770432979864891  0.718856347502912  1.0000
  H   H13       1.0  0.9746910846446438  0.5794999597126294  0.6811728950254637  1.0000
  H   H14       1.0  0.9551306759618762  0.6428762816434699  0.5500130680032406  1.0000
  H   H15       1.0  0.1828754098841028  0.6439895658619242  0.49409575328115457  1.0000
  H   H16       1.0  0.198358223603491  0.5638988323209714  0.6243636206672408  1.0000
  H   H17       1.0  0.2871933571047585  0.7291468672202558  0.6353249992092715  1.0000
  H   H18       1.0  0.38278005539237336  0.6591094482142404  0.53888095322164  1.0000
  H   H19       1.0  0.4645785716120373  0.8407536576705567  0.46049146688679177  1.0000
  H   H20       1.0  0.359886027430775  0.9246029888014519  0.545929598658978  1.0000
  H   H21       1.0  0.24511109502728265  0.07498895604000062  0.3998796959919092  1.0000
  H   H22       1.0  0.41157619516217575  0.0781022592532939  0.384734397557436  1.0000
  H   H23       1.0  0.7016110057098669  0.28596682554035585  0.9272320910532189  1.0000
  H   H24       1.0  0.5367476735831817  0.27066154241629725  0.9657031055023265  1.0000
  H   H25       1.0  0.5905852064254871  0.08999598089993432  0.8990701709623226  1.0000
  H   H26       1.0  0.6267909730859573  0.2278641431049153  0.8029194781678067  1.0000
  H   H27       1.0  0.8091216495923507  0.09468172030815056  0.7031283724145982  1.0000
  H   H28       1.0  0.7320307794838807  0.9767104081112513  0.7947091005317103  1.0000
  H   H29       1.0  0.9375491192693304  0.8671096135168764  0.8655978814432224  1.0000
  H   H30       1.0  0.9540517677851906  0.8740962770160856  0.734772308898766  1.0000
  H   H31       1.0  0.18186362664788178  0.8419464662797157  0.7237849903220795  1.0000
  H   H32       1.0  0.1681110157083393  0.8471694006890376  0.8505931908649027  1.0000
  H   H33       1.0  0.3688170070189759  0.9051504046414506  0.7327215341622866  1.0000
  H   H34       1.0  0.2659785513718153  0.03928141646680066  0.656499435407963  1.0000
  H   H35       1.0  0.35744255062261915  0.17609602662444954  0.697788525693677  1.0000
  H   H36       1.0  0.45828984151155955  0.04578459029262597  0.7777583147283749  1.0000
  H   H37       1.0  0.39989766134524823  0.2470306168239972  0.8268827643283807  1.0000
  H   H38       1.0  0.23266635057726343  0.24103591105749933  0.8548982179131895  1.0000
  H   H39       1.0  0.5054236843654855  0.5152997273236352  0.1373537605148882  1.0000
  H   H40       1.0  0.39683391608682134  0.4631434467236511  0.2532007819816189  1.0000
  H   H41       1.0  0.7106723574664604  0.5314260886021942  0.1565307990849438  1.0000
  H   H42       1.0  0.7454363214712788  0.39661338518903466  0.2625919406796205  1.0000
  H   H43       1.0  0.5505148598918356  0.695996254484298  0.3121233649373619  1.0000
  H   H44       1.0  0.6477000606585208  0.822877388371336  0.3738141253292098  1.0000
  H   H45       1.0  0.8865122022760409  0.7590218926222659  0.38008753985467375  1.0000
  H   H46       1.0  0.021317138511618414  0.568735938552767  0.32730606725751465  1.0000
  H   H47       1.0  0.21227419504760225  0.4440853296624415  0.18717532355345443  1.0000
  H   H48       1.0  0.2928461374712653  0.4842582403874773  0.05673120582931585  1.0000
  H   H49       1.0  0.13471100138406764  0.6576971081094142  0.9914944353428866  1.0000
  H   H50       1.0  0.06591643852485088  0.6432852200404088  0.12244337339905216  1.0000
  H   H51       1.0  0.8738413113265838  0.8007694467021091  0.11635879836742363  1.0000
  H   H52       1.0  0.6528703635352862  0.896797383087543  0.06283935038028435  1.0000
  H   H53       1.0  0.5891686175838153  0.8076570848924656  0.9465959200286798  1.0000
  H   H54       1.0  0.7499166229913565  0.6353102557516833  0.8879290913433714  1.0000
  H   H55       1.0  0.9114140026768809  0.4410955740537132  0.8893830304590774  1.0000
  H   H56       1.0  0.9132256158970768  0.3901589740681241  0.073813198558528  1.0000
  H   H57       1.0  0.030143520549778428  0.997838090853837  0.08422665775992744  1.0000
  H   H58       1.0  0.023305580336658673  0.06842849576419904  0.8972954892607111  1.0000
  H   H59       1.0  0.045036524186954585  0.34852232444665715  0.7398622148525636  1.0000
  H   H60       1.0  0.8744230433428888  0.35074290307218287  0.7610453228523151  1.0000
  H   H61       1.0  0.9967808807415046  0.20982876194345304  0.7530028063565872  1.0000
  H   H62       1.0  0.9808470690990018  0.2720377805347973  0.3959583675052531  1.0000
  H   H63       1.0  0.9780081815868282  0.3381568206151012  0.21087002611013833  1.0000
  H   H64       1.0  0.9802186957640335  0.9553177814323777  0.24146783718332432  1.0000
  H   H65       1.0  0.9897472784337986  0.9054806318225529  0.42732429337126615  1.0000
  H   H66       1.0  0.9003796997653042  0.025166834818168716  0.5674936126725179  1.0000
  H   H67       1.0  0.009297320240469474  0.12467166813721707  0.543967911152788  1.0000
  H   H68       1.0  0.07284574906548347  0.9643339947410686  0.5406698471670222  1.0000
  H   H69       1.0  0.325079796633316  0.6983291480467393  0.046832789282705234  1.0000
  H   H70       1.0  0.42398966090915213  0.7581799713308827  0.09145551324790903  1.0000
  H   H71       1.0  0.3047676471583722  0.8618878168367085  0.012353304011939558  1.0000
  H   H72       1.0  0.17693474604967313  0.7203991732889252  0.3310154499559887  1.0000
  H   H73       1.0  0.29226696770719257  0.815522729863224  0.2783078152757366  1.0000
  H   H74       1.0  0.343124171696586  0.6572705426313139  0.28023652947130845  1.0000
  H   H75       1.0  0.5104466639829692  0.45888976045923796  0.4859250769693564  1.0000
  H   H76       1.0  0.4887582342126008  0.4306762083538696  0.6200753063582862  1.0000
  H   H77       1.0  0.49797929814130987  0.30831621873078713  0.5670573881750026  1.0000
  H   H78       1.0  0.7081784707516563  0.44022113178734784  0.6504750475096379  1.0000
  H   H79       1.0  0.7160932992760586  0.5328348704414658  0.5230363047427942  1.0000
  H   H80       1.0  0.8525497738058633  0.40466692425802214  0.5590558022121683  1.0000
  H   H81       1.0  0.19609837479097544  0.5513911347288907  0.8230993599213844  1.0000
  H   H82       1.0  0.05348807088094947  0.5490006768920636  0.8800177003730117  1.0000
  C   C1        1.0  0.6438381610964593  0.10632128779280503  0.31223754592763986  1.0000
  C   C2        1.0  0.6727452928406716  0.0730045860320282  0.22158370373305908  1.0000
  C   C3        1.0  0.6467525349752837  0.16523700721357096  0.13034586955070476  1.0000
  C   C4        1.0  0.5957320880724986  0.2907628830827734  0.12844533740752287  1.0000
  C   C5        1.0  0.565741065642179  0.32184446761439145  0.2196551269900437  1.0000
  C   C6        1.0  0.5902087173314476  0.23087533299222243  0.3121928769830747  1.0000
  C   C7        1.0  0.3444508014440676  0.08169282463334963  0.20940616348778915  1.0000
  C   C8        1.0  0.36281411830794796  0.04646062040084412  0.12122520279195936  1.0000
  C   C9        1.0  0.331753666285825  0.13759238567245827  0.030333364859633977  1.0000
  C   C10       1.0  0.28268959493726437  0.2636591998233504  0.026468801836778345  1.0000
  C   C11       1.0  0.2670172336377114  0.2972492181837206  0.11545096373110836  1.0000
  C   C12       1.0  0.2972376225503199  0.2076756309220176  0.20694291753327396  1.0000
  C   C13       1.0  0.6351274493392093  0.039433795801384286  0.493965786610265  1.0000
  C   C14       1.0  0.6589558664338409  0.9194467956815405  0.5793695649896824  1.0000
  C   C15       1.0  0.8237289190886226  0.7467735639966474  0.6490317799856137  1.0000
  C   C16       1.0  0.955450821214116  0.6674935037270324  0.6185816622495635  1.0000
  C   C17       1.0  0.18060396600241216  0.6572858860875194  0.568118814780216  1.0000
  C   C18       1.0  0.28682540538747314  0.7190631996062304  0.560625540126623  1.0000
  C   C19       1.0  0.36627155571109576  0.901241984696403  0.47516052344430376  1.0000
  C   C20       1.0  0.34665243820878033  0.020106652497769936  0.3885588345217257  1.0000
  C   C21       1.0  0.6393310842494556  0.21878022390478868  0.9529652869073904  1.0000
  C   C22       1.0  0.6559242796298677  0.15495366763314306  0.8732790134594276  1.0000
  C   C23       1.0  0.8101406766443198  0.026216210376777054  0.7799801940401562  1.0000
  C   C24       1.0  0.9389192054790195  0.9306972790932212  0.7868502164293469  1.0000
  C   C25       1.0  0.16600899356184032  0.9053686333195725  0.7701654681510633  1.0000
  C   C26       1.0  0.2736443652165664  0.9742571765094834  0.7341379744748917  1.0000
  C   C27       1.0  0.3599708046060742  0.11066867116356893  0.7755608351857368  1.0000
  C   C28       1.0  0.333673964733836  0.18352712849379227  0.8506051646245447  1.0000
  C   C29       1.0  0.5002434049425712  0.45566086300628683  0.21761506551132276  1.0000
  C   C30       1.0  0.6899411140255937  0.4947898160576389  0.24118987361796532  1.0000
  C   C31       1.0  0.737598065863059  0.5688455280117313  0.2864883815310962  1.0000
  C   C32       1.0  0.6544547137021227  0.6716214056427915  0.31651280535023657  1.0000
  C   C33       1.0  0.7081873547751036  0.7413389449097101  0.3506193099933911  1.0000
  C   C34       1.0  0.8421068912748781  0.7063575237717136  0.35362727600849236  1.0000
  C   C35       1.0  0.9169168210029077  0.6010930554895701  0.3236790359220196  1.0000
  C   C36       1.0  0.22109126826597716  0.43289286214863465  0.11107479292759453  1.0000
  C   C37       1.0  0.06275562302170559  0.6166587757458605  0.055805869614811494  1.0000
  C   C38       1.0  0.927732503674423  0.6706817484800451  0.02804638772904115  1.0000
  C   C39       1.0  0.8424729040027552  0.7673996053915801  0.06530778232549836  1.0000
  C   C40       1.0  0.7192713632178072  0.8196170743562923  0.03603278706288497  1.0000
  C   C41       1.0  0.6842308856073647  0.771458776900865  0.9716742394682513  1.0000
  C   C42       1.0  0.7751791287525349  0.6747869923605657  0.9380046003587212  1.0000
  C   C43       1.0  0.9359293702434541  0.34517564261372347  0.9372239650279552  1.0000
  C   C44       1.0  0.936843556021938  0.3140730368603931  0.04042603358553053  1.0000
  C   C45       1.0  0.971487771506414  0.18787803597285596  0.09774355159317415  1.0000
  C   C46       1.0  0.001674773140623403  0.09755338248399055  0.045984684013517726  1.0000
  C   C47       1.0  0.9996461101628492  0.1333719110460672  0.9421142240567613  1.0000
  C   C48       1.0  0.9712471165464663  0.293595259386754  0.7778825787853376  1.0000
  C   C49       1.0  0.9808200549629018  0.2064508393743477  0.3574478230182376  1.0000
  C   C50       1.0  0.9772910305820555  0.24128009336890976  0.25375450758916596  1.0000
  C   C51       1.0  0.9761977264705454  0.15268564094912163  0.20813324831315522  1.0000
  C   C52       1.0  0.9804400583995933  0.029265108973870965  0.271202893144065  1.0000
  C   C53       1.0  0.9862202019990873  0.9985504236320681  0.373742091485813  1.0000
  C   C54       1.0  0.9930851819088845  0.04839411043789276  0.5250497820602472  1.0000
  C   C55       1.0  0.32579180426293874  0.7748865475431599  0.07469361674852608  1.0000
  C   C56       1.0  0.22068519815339602  0.7782478414051784  0.16724258841867834  1.0000
  C   C57       1.0  0.25997155559685053  0.7391283233350407  0.27032976458874197  1.0000
  C   C58       1.0  0.5362210240834194  0.3884605653461878  0.5578149306612848  1.0000
  C   C59       1.0  0.6828376334706214  0.35258169098195574  0.5493734683316752  1.0000
  C   C60       1.0  0.7457447815146023  0.43630585461811333  0.5714583073808592  1.0000
  N   N1        1.0  0.8665466232228293  0.5327326452048693  0.2911626237387539  1.0000
  N   N2        1.0  0.895404325864217  0.6258906012501896  0.9639416083379257  1.0000
  N   N3        1.0  0.9682342176874357  0.25580081060504906  0.8891901944352064  1.0000
  N   N4        1.0  0.986246749708974  0.08677241321630592  0.41534656387694  1.0000
  O   O1        1.0  0.6683353582393592  0.009219203382255917  0.3987655329578655  1.0000
  O   O2        1.0  0.7944858601341414  0.8588266311413725  0.5672199593791674  1.0000
  O   O3        1.0  0.055723854889684336  0.731904314414126  0.5992630216084601  1.0000
  O   O4        1.0  0.2679980735459799  0.8385459041834518  0.48553156261267444  1.0000
  O   O5        1.0  0.37418439543378595  0.9866499915668612  0.29553228752317257  1.0000
  O   O6        1.0  0.6735550580125416  0.1252647011688594  0.04562959878699312  1.0000
  O   O7        1.0  0.7883331330196256  0.08844156813723614  0.8552645262979967  1.0000
  O   O8        1.0  0.042408771343098735  0.9931039458068212  0.7608315602186125  1.0000
  O   O9        1.0  0.2616069277841263  0.04236136539071272  0.8036106005220647  1.0000
  O   O10       1.0  0.3544910992442187  0.09378338089630589  0.9479756083268089  1.0000
  O   O11       1.0  0.5533384427630796  0.5039939633898204  0.27466274710451105  1.0000
  O   O12       1.0  0.09660856889755638  0.48442251216633286  0.07663295290807777  1.0000
  O   O13       1.0  0.10379610417565564  0.8129788169148993  0.1574865999721044  1.0000
  O   O14       1.0  0.7488789780982055  0.25820402632171224  0.5245984572095957  1.0000
  O   O15       1.0  0.12447124938431363  0.5129275547280291  0.8316991763610417  1.0000
  F   F1        1.0  0.06775821957404031  0.45782038805725317  0.5027927352564242  1.0000
  F   F2        1.0  0.1712753539801413  0.33729999115609743  0.3926810621424455  1.0000
  F   F3        1.0  0.11395406837804925  0.24250892532942833  0.5658791501729827  1.0000
  F   F4        1.0  0.33201344635413493  0.2319308401482285  0.4953523196993015  1.0000
  F   F5        1.0  0.22884411216267164  0.3541833497977778  0.6042371189149927  1.0000
  F   F6        1.0  0.28623238862339695  0.4483994667982446  0.43072052985466946  1.0000
  F   F7        1.0  0.34436313701019067  0.6441340372508222  0.8184328427613824  1.0000
  F   F8        1.0  0.5258621193100046  0.6446358376869615  0.688896769734288  1.0000
  F   F9        1.0  0.48612308572538276  0.4574843184637654  0.8020985297229005  1.0000
  F   F10       1.0  0.6624306409161101  0.5256791122833434  0.8092886607735544  1.0000
  F   F11       1.0  0.48147917601552087  0.5283244386226789  0.9379804270917048  1.0000
  F   F12       1.0  0.520489940065415  0.7146669973824383  0.8241374631524605  1.0000
  P   P1        1.0  0.2002763531073681  0.3460122210386565  0.4985626562797417  1.0000
  P   P2        1.0  0.5034723082598768  0.5860508136361454  0.8131957231428918  1.0000
