data_image0
_chemical_formula_structural       H68B20C78N4Cl8
_chemical_formula_sum              "H68 B20 C78 N4 Cl8"
_cell_length_a       12.797093266515676
_cell_length_b       13.116880506509794
_cell_length_c       13.440924667631807
_cell_angle_alpha    67.16342670805697
_cell_angle_beta     65.02157322474217
_cell_angle_gamma    73.49047745679074

_space_group_name_H-M_alt    "P 1"
_space_group_IT_number       1

loop_
  _space_group_symop_operation_xyz
  'x, y, z'

loop_
  _atom_site_type_symbol
  _atom_site_label
  _atom_site_symmetry_multiplicity
  _atom_site_fract_x
  _atom_site_fract_y
  _atom_site_fract_z
  _atom_site_occupancy
  H   H1        1.0  0.10615676148386795  0.1725761999575426  0.3728052453449343  1.0000
  H   H2        1.0  0.8938432389150442  0.8274237995182864  0.6271947549157247  1.0000
  H   H3        1.0  0.36304588130759563  0.1754531670928043  0.2590454523241748  1.0000
  H   H4        1.0  0.6369541188555904  0.8245468331784475  0.7409545479355556  1.0000
  H   H5        1.0  0.20785131065912962  0.28828348912138546  0.10991505306928123  1.0000
  H   H6        1.0  0.7921486897397829  0.7117165103544433  0.890084947191378  1.0000
  H   H7        1.0  0.983657133737421  0.4025333968890613  0.25806479543962174  1.0000
  H   H8        1.0  0.0163428666614914  0.5974666025867675  0.7419352048210374  1.0000
  H   H9        1.0  0.1771193178785883  0.5407884594294851  0.0698647541798211  1.0000
  H   H10       1.0  0.8228806822845975  0.45921154084176674  0.9301352460799093  1.0000
  H   H11       1.0  0.4123661529698365  0.39242015670706637  0.07357801823076923  1.0000
  H   H12       1.0  0.587633846648758  0.6075798427640476  0.9264219820305135  1.0000
  H   H13       1.0  0.32210245813030874  0.5670832421088486  0.19177752444929216  1.0000
  H   H14       1.0  0.6778975423401471  0.4329167584194155  0.8082224749475917  1.0000
  H   H15       1.0  0.05331902363389598  0.5778453957527938  0.3081326088546793  1.0000
  H   H16       1.0  0.946680976056242  0.42215460477075567  0.6918673905428282  1.0000
  H   H17       1.0  0.38272197260282953  0.39365878281282174  0.450049244288274  1.0000
  H   H18       1.0  0.6172780281033525  0.6063412169200195  0.5499507551095388  1.0000
  H   H19       1.0  0.2168127788643181  0.44853415155827014  0.445433255649422  1.0000
  H   H20       1.0  0.7831872207542764  0.5514658479128439  0.5545667446118607  1.0000
  H   H21       1.0  0.10699418319860063  0.2964655916214632  0.6071789358527524  1.0000
  H   H22       1.0  0.8930058172003116  0.7035344078543656  0.39282106440790665  1.0000
  H   H23       1.0  0.7223023765845756  0.2086824202154156  0.18345289406432047  1.0000
  H   H24       1.0  0.2776976238858802  0.7913175803128487  0.8165471053325635  1.0000
  H   H25       1.0  0.15235383184579088  0.1793547692975478  0.7825932125739999  1.0000
  H   H26       1.0  0.8476461683173951  0.820645230973704  0.21740678768573032  1.0000
  H   H27       1.0  0.8848259136158898  0.23065100820665457  0.49469078895548935  1.0000
  H   H28       1.0  0.11517408678302264  0.7693489912691742  0.5053092113051697  1.0000
  H   H29       1.0  0.5313186142022126  0.2671284830176458  0.1586393744144533  1.0000
  H   H30       1.0  0.4686813859609734  0.732871517253606  0.841360625845277  1.0000
  H   H31       1.0  0.38534964359060137  0.09739331597159771  0.4117167735321858  1.0000
  H   H32       1.0  0.614650356027993  0.9026066834995166  0.5882832267290969  1.0000
  H   H33       1.0  0.46670433154207586  0.41068261583174265  0.6054788810171364  1.0000
  H   H34       1.0  0.5332956686211101  0.5893173844395092  0.394521119242594  1.0000
  H   H35       1.0  0.09587405982626127  0.9715485562943412  0.8698612966221805  1.0000
  H   H36       1.0  0.9041259406441948  0.0284514442339231  0.13013870277470327  1.0000
  H   H37       1.0  0.5373778309595363  0.8464621239426834  0.023131545915762265  1.0000
  H   H38       1.0  0.46262216896632785  0.15353787578544303  0.9768684534826741  1.0000
  H   H39       1.0  0.5317787187573724  0.11471043305702516  0.637234606129406  1.0000
  H   H40       1.0  0.46822128140581365  0.8852895672142266  0.36276539413032427  1.0000
  H   H41       1.0  0.4303063093150544  0.9800339270500759  0.5891280177073464  1.0000
  H   H42       1.0  0.5696936911554015  0.019966073478188264  0.41087198168953765  1.0000
  H   H43       1.0  0.7060267136808082  0.07398406420333219  0.6914819898476013  1.0000
  H   H44       1.0  0.2939732867181042  0.9260159352724967  0.3085180104130578  1.0000
  H   H45       1.0  0.7956721450213644  0.3109502400278772  0.6584263448006474  1.0000
  H   H46       1.0  0.20432785568481782  0.689049759704964  0.3415736545971653  1.0000
  H   H47       1.0  0.3203236344554742  0.7740786045857695  0.13872671678435913  1.0000
  H   H48       1.0  0.6796763651631202  0.22592139488534452  0.8612732834769237  1.0000
  H   H49       1.0  0.9202662803321933  0.28767013001262876  0.15753351264745702  1.0000
  H   H50       1.0  0.07973371959367104  0.7123298697154977  0.8424664867509793  1.0000
  H   H51       1.0  0.013306376029290926  0.3507430026512869  0.4899343787245335  1.0000
  H   H52       1.0  0.9866936244411648  0.6492569978769774  0.5100656206723505  1.0000
  H   H53       1.0  0.5883017632254789  0.3975557717156527  0.7141071296383273  1.0000
  H   H54       1.0  0.4116982364646588  0.6024442288078967  0.2858928697591803  1.0000
  H   H55       1.0  0.7097920859269345  0.9395137905879067  0.8809701602015021  1.0000
  H   H56       1.0  0.2902079136916598  0.060486208883207326  0.11902984005978076  1.0000
  H   H57       1.0  0.008310831044132827  0.8375531008400857  0.06127637119431005  1.0000
  H   H58       1.0  0.991689168646005  0.16244689968346365  0.9387236282031977  1.0000
  H   H59       1.0  0.13483703253925314  0.9657908481540053  0.21404105942814575  1.0000
  H   H60       1.0  0.8651629678596592  0.034209151321823554  0.7859589408325133  1.0000
  H   H61       1.0  0.8179620582740298  0.03360443496120355  0.48638073246677843  1.0000
  H   H62       1.0  0.18203794134456486  0.9663955645099106  0.5136192677945043  1.0000
  H   H63       1.0  0.09832027613308793  0.15869756880132063  0.08570404527406171  1.0000
  H   H64       1.0  0.901679724030098  0.8413024314699311  0.9142959549856686  1.0000
  H   H65       1.0  0.11766339126691869  0.7401017197117661  0.19494405066843118  1.0000
  H   H66       1.0  0.8823366091319935  0.2598982797640628  0.8050559495922279  1.0000
  H   H67       1.0  0.9956516425585122  0.9045540747741652  0.41593271625133127  1.0000
  H   H68       1.0  0.004348357060082256  0.09544592469694883  0.5840672840099514  1.0000
  B   B1        1.0  0.209168009376148  0.4242107393355785  0.3728674602313732  1.0000
  B   B2        1.0  0.79083199000672  0.5757892609309586  0.6271325400289809  1.0000
  B   B3        1.0  0.3234741464707905  0.38809708220582684  0.15378833058416203  1.0000
  B   B4        1.0  0.6765258529120776  0.6119029180607103  0.846211669676192  1.0000
  B   B5        1.0  0.2952824486225111  0.25775187810992933  0.2616815254593789  1.0000
  B   B6        1.0  0.7047175509960834  0.7422481213611848  0.7383184748019039  1.0000
  B   B7        1.0  0.26940702330798666  0.49224364560465517  0.22336090667677544  1.0000
  B   B8        1.0  0.7305929768551994  0.5077563546665966  0.7766390935829549  1.0000
  B   B9        1.0  0.0891063621816936  0.36373435243712005  0.3981464160089608  1.0000
  B   B10       1.0  0.9108936379814923  0.6362656478341319  0.6018535842507696  1.0000
  B   B11       1.0  0.1874819255624031  0.47191951503984614  0.15577857278054982  1.0000
  B   B12       1.0  0.8125180743634611  0.5280804846882804  0.8442214266178866  1.0000
  B   B13       1.0  0.14289166224721755  0.2594973642599987  0.3284254578029582  1.0000
  B   B14       1.0  0.8571083373713768  0.7405026352111153  0.6715745424583246  1.0000
  B   B15       1.0  0.20508264898421485  0.3259062889597548  0.17861279710721656  1.0000
  B   B16       1.0  0.794917350398653  0.6740937113067821  0.8213872031531375  1.0000
  B   B17       1.0  0.07635334667059185  0.3928158844357935  0.26358858723815076  1.0000
  B   B18       1.0  0.9236466537283206  0.6071841150400353  0.7364114130225082  1.0000
  B   B19       1.0  0.11670407247461828  0.4947381230435003  0.29238114124142095  1.0000
  B   B20       1.0  0.8832959276885677  0.5052618772277515  0.7076188590183093  1.0000
  C   C1        1.0  0.7719255303790993  0.6125174426432883  0.17597759325950868  1.0000
  C   C2        1.0  0.22807446978408663  0.38748255762796346  0.8240224070002217  1.0000
  C   C3        1.0  0.25771889838665496  0.9477024558817655  0.89768169487562  1.0000
  C   C4        1.0  0.742281101776531  0.0522975443894863  0.10231830538411037  1.0000
  C   C5        1.0  0.24425623622392842  0.20633312525474065  0.496764289663502  1.0000
  C   C6        1.0  0.7557437639392574  0.7936668750165112  0.5032357105962284  1.0000
  C   C7        1.0  0.45635575878043166  0.35383022512209733  0.3922694907497811  1.0000
  C   C8        1.0  0.5436442416184806  0.6461697743537316  0.607730509510878  1.0000
  C   C9        1.0  0.563368396993521  0.319783566369939  0.4085254426579187  1.0000
  C   C10       1.0  0.43663160316966504  0.680216433901313  0.5914745576018117  1.0000
  C   C11       1.0  0.32294927496617837  0.8918601466042972  0.972246735117102  1.0000
  C   C12       1.0  0.6770507257400038  0.10813985312854399  0.027753264280710677  1.0000
  C   C13       1.0  0.43767761102098973  0.001004040189455964  0.8000982492162915  1.0000
  C   C14       1.0  0.5623223885976046  0.9989959592816582  0.19990175104499133  1.0000
  C   C15       1.0  0.6586462482199803  0.26594937057166024  0.3331480014005415  1.0000
  C   C16       1.0  0.3413537521789321  0.7340506289041686  0.6668519988601176  1.0000
  C   C17       1.0  0.6053904037262162  0.3253869572033877  0.4904885240368986  1.0000
  C   C18       1.0  0.39460959589237826  0.6746130422677266  0.5095114762243843  1.0000
  C   C19       1.0  0.7237678343008583  0.2737942546554339  0.46182376549710213  1.0000
  C   C20       1.0  0.2762321656250062  0.7262057450726925  0.5381762339013343  1.0000
  C   C21       1.0  0.444633924736068  0.33458550186925556  0.30223745582873957  1.0000
  C   C22       1.0  0.5553660751897963  0.665414497858871  0.6977625435696969  1.0000
  C   C23       1.0  0.1774719205105482  0.22663253560958843  0.6026134534405038  1.0000
  C   C24       1.0  0.8225280798883641  0.7733674638662404  0.3973865468201554  1.0000
  C   C25       1.0  0.43709346221906176  0.9264519068010034  0.9105644368639483  1.0000
  C   C26       1.0  0.5629065382513939  0.07354809372726087  0.08943556253293565  1.0000
  C   C27       1.0  0.2968355347061313  0.07483569747349109  0.6953782443587302  1.0000
  C   C28       1.0  0.7031644649124632  0.925164301997623  0.3046217559025527  1.0000
  C   C29       1.0  0.648745701150474  0.24796677797271344  0.24197867078934118  1.0000
  C   C30       1.0  0.35125429901271177  0.7520332222985385  0.7580213294703892  1.0000
  C   C31       1.0  0.22052615484042315  0.2844812000105744  0.39076256301000495  1.0000
  C   C32       1.0  0.7794738458657591  0.7155187997222666  0.6092374363878078  1.0000
  C   C33       1.0  0.8588654087339849  0.16735267292814923  0.3252915890246027  1.0000
  C   C34       1.0  0.14113459166492734  0.8326473265476797  0.6747084112360564  1.0000
  C   C35       1.0  0.2026696993168556  0.1610655103313484  0.7015091778896828  1.0000
  C   C36       1.0  0.7973303000660126  0.8389344899351887  0.2984908223706712  1.0000
  C   C37       1.0  0.7936636080636676  0.2675209061176771  0.5208804681855784  1.0000
  C   C38       1.0  0.20633639155492658  0.7324790933534372  0.47911953207570446  1.0000
  C   C39       1.0  0.5412511282550045  0.28210353161770507  0.22811418494550917  1.0000
  C   C40       1.0  0.45874887136359  0.7178964678534091  0.7718858153157736  1.0000
  C   C41       1.0  0.3349204500825892  0.11624555077749957  0.49257585634909185  1.0000
  C   C42       1.0  0.6650795503163233  0.8837544486983292  0.5074241439115673  1.0000
  C   C43       1.0  0.5566909227448597  0.370034736832458  0.5823146595521629  1.0000
  C   C44       1.0  0.44330907765405264  0.6299652626433708  0.4176853407084962  1.0000
  C   C45       1.0  0.33064137635264224  0.3622903466523915  0.2851017370303414  1.0000
  C   C46       1.0  0.6693586230302258  0.6377096536141457  0.7148982632300126  1.0000
  C   C47       1.0  0.14423874335567782  0.9299643859654211  0.9283433024066711  1.0000
  C   C48       1.0  0.8557612562629167  0.07003561350569316  0.07165669785461175  1.0000
  C   C49       1.0  0.5362284596307889  0.9037436162321398  0.9392030522785446  1.0000
  C   C50       1.0  0.46377154005934884  0.09625638429140969  0.06079694711896295  1.0000
  C   C51       1.0  0.5335187461361315  0.055113869191524556  0.7200635164470215  1.0000
  C   C52       1.0  0.4664812545700508  0.9448861305413166  0.2799364829507912  1.0000
  C   C53       1.0  0.3609357134419134  0.05092384869038521  0.5912559530829816  1.0000
  C   C54       1.0  0.6390642867212726  0.9490761515808667  0.4087440471767487  1.0000
  C   C55       1.0  0.6305719582335667  0.03199386656017604  0.7517946681283585  1.0000
  C   C56       1.0  0.36942804216534575  0.9680061329156529  0.24820533213230062  1.0000
  C   C57       1.0  0.7429024663317118  0.31302892046359976  0.6116201955951223  1.0000
  C   C58       1.0  0.2570975333584261  0.6869710800599497  0.38837980380238535  1.0000
  C   C59       1.0  0.271599084254329  0.8175121081592235  0.08059316755123178  1.0000
  C   C60       1.0  0.7284009159088568  0.18248789211202843  0.9194068327084984  1.0000
  C   C61       1.0  0.9373881598298377  0.20331147682063644  0.21281982769912497  1.0000
  C   C62       1.0  0.06261184064061814  0.7966885237076278  0.787180171697759  1.0000
  C   C63       1.0  0.625615899825835  0.36278795254552  0.6426699314948836  1.0000
  C   C64       1.0  0.37438410010002937  0.6372120471826064  0.3573300679035529  1.0000
  C   C65       1.0  0.6322921358531576  0.9566822308830848  0.8594503284544688  1.0000
  C   C66       1.0  0.3677078646172983  0.04331776964517937  0.14054967094241508  1.0000
  C   C67       1.0  0.09601041720887063  0.8544140814223232  0.036239528200101984  1.0000
  C   C68       1.0  0.9039895829543153  0.14558591884892857  0.9637604720596284  1.0000
  C   C69       1.0  0.05811368846826088  0.0230722945224339  0.24586736133233372  1.0000
  C   C70       1.0  0.9418863122379213  0.9769277052104074  0.754132638065479  1.0000
  C   C71       1.0  0.8802811684345884  0.06028209197719553  0.39896828642086524  1.0000
  C   C72       1.0  0.11971883125554925  0.9397179085463541  0.6010317129766425  1.0000
  C   C73       1.0  0.03699901135851925  0.1305903156737385  0.17339876848899868  1.0000
  C   C74       1.0  0.9630009880243489  0.8694096845927987  0.8266012317713554  1.0000
  C   C75       1.0  0.15824589316626617  0.799180397305412  0.11178363948176062  1.0000
  C   C76       1.0  0.8417541069969198  0.20081960296583978  0.8882163607779697  1.0000
  C   C77       1.0  0.9800232000018634  0.9883444207118344  0.35886964106531644  1.0000
  C   C78       1.0  0.019976799381004648  0.011655579554702932  0.6411303591950376  1.0000
  N   N1        1.0  0.3285103972200599  0.012351156463701067  0.7934593383258676  1.0000
  N   N2        1.0  0.6714896031788524  0.9876488430121277  0.20654066193479156  1.0000
  N   N3        1.0  0.7544704038735311  0.23847347686967754  0.3665563210366458  1.0000
  N   N4        1.0  0.24552959550933676  0.7615265233968597  0.6334436792237081  1.0000
  Cl  Cl1       1.0  0.7696650754058936  0.5617387775008877  0.32026379362705387  1.0000
  Cl  Cl2       1.0  0.23033492397697428  0.4382612227656494  0.6797362066333001  1.0000
  Cl  Cl3       1.0  0.6917530849314317  0.7494097516229608  0.15011008020669211  1.0000
  Cl  Cl4       1.0  0.308246915539024  0.25059024890530346  0.8498899191901919  1.0000
  Cl  Cl5       1.0  0.7081355470869343  0.522895546362035  0.15494869330933542  1.0000
  Cl  Cl6       1.0  0.29186445260320365  0.4771044541615145  0.8450513060881722  1.0000
  Cl  Cl7       1.0  0.9188777525165236  0.6164593672578028  0.08066635052929447  1.0000
  Cl  Cl8       1.0  0.08112224764666247  0.38354063301344893  0.9193336497304359  1.0000
