data_image0
_chemical_formula_structural       H88B4C96N8F16I4
_chemical_formula_sum              "H88 B4 C96 N8 F16 I4"
_cell_length_a       7.122904660944914
_cell_length_b       17.074499544945848
_cell_length_c       18.654639711392573
_cell_angle_alpha    90.0
_cell_angle_beta     103.2479660216612
_cell_angle_gamma    90.0

_space_group_name_H-M_alt    "P 1"
_space_group_IT_number       1

loop_
  _space_group_symop_operation_xyz
  'x, y, z'

loop_
  _atom_site_type_symbol
  _atom_site_label
  _atom_site_symmetry_multiplicity
  _atom_site_fract_x
  _atom_site_fract_y
  _atom_site_fract_z
  _atom_site_occupancy
  H   H1        1.0  0.0029909630051394433  0.2531233760979732  0.4380092035656564  1.0000
  H   H2        1.0  0.0029909626165776225  0.24687662375719538  0.9380092036033149  1.0000
  H   H3        1.0  0.9970090380756061  0.7468766241980327  0.5619907966520581  1.0000
  H   H4        1.0  0.9970090384641682  0.7531233759531417  0.061990796614399886  1.0000
  H   H5        1.0  0.18194774527412635  0.27764890546401283  0.33956005882310447  1.0000
  H   H6        1.0  0.18194774488556434  0.22235109497682445  0.8395600588607626  1.0000
  H   H7        1.0  0.8180522554824148  0.722351094831993  0.6604399408439  1.0000
  H   H8        1.0  0.8180522544655816  0.7776489053191814  0.160439940803763  1.0000
  H   H9        1.0  0.006199589372892811  0.2848638870613192  0.20874370168110842  1.0000
  H   H10       1.0  0.0061995889843308345  0.2151361127938494  0.7087437017187666  1.0000
  H   H11       1.0  0.993800409978253  0.715136112649018  0.7912562979834172  1.0000
  H   H12       1.0  0.9938004103668151  0.7848638875021564  0.291256297945759  1.0000
  H   H13       1.0  0.6469290689178978  0.26918166578770886  0.17466825541793746  1.0000
  H   H14       1.0  0.6469290685293361  0.23081833406745975  0.6746682554555957  1.0000
  H   H15       1.0  0.3530709321628478  0.7308183339226283  0.825331744799777  1.0000
  H   H16       1.0  0.3530709311460146  0.7691816656428775  0.3253317447596401  1.0000
  H   H17       1.0  0.46772423329244694  0.246323903604247  0.2713729550951844  1.0000
  H   H18       1.0  0.4677242325796804  0.25367609625092163  0.7713729545821325  1.0000
  H   H19       1.0  0.5322757677882988  0.7536760961060902  0.7286270451225301  1.0000
  H   H20       1.0  0.5322757681768607  0.7463239040450842  0.22862704508487192  1.0000
  H   H21       1.0  0.40072264636481036  0.9283295512278671  0.4316098991926791  1.0000
  H   H22       1.0  0.40072264597624835  0.5716704483376387  0.9316098992303372  1.0000
  H   H23       1.0  0.5992773533105402  0.07167044848247008  0.5683901010225567  1.0000
  H   H24       1.0  0.5992773536991022  0.4283295513726985  0.06839010098489849  1.0000
  H   H25       1.0  0.15786910904890247  0.9060169534854184  0.43530567863887726  1.0000
  H   H26       1.0  0.15786911006573567  0.5939830460800873  0.9353056786790143  1.0000
  H   H27       1.0  0.8421308906264481  0.09398304622491876  0.5646943215763585  1.0000
  H   H28       1.0  0.8421308910150099  0.4060169536302498  0.06469432153870029  1.0000
  H   H29       1.0  0.2929324129472228  0.9759941751811299  0.49700985199746756  1.0000
  H   H30       1.0  0.29293241255866087  0.5240058249700446  0.9970098520351257  1.0000
  H   H31       1.0  0.707067588133523  0.024005824529207305  0.502990148220247  1.0000
  H   H32       1.0  0.7070675871166898  0.47599417532596133  0.0029901481801100156  1.0000
  H   H33       1.0  0.8934842612443143  0.0028717784595048003  0.3944275160549904  1.0000
  H   H34       1.0  0.8934842608557524  0.49712822139566376  0.8944275160926486  1.0000
  H   H35       1.0  0.10651573951222683  0.9971282218365011  0.6055724836120141  1.0000
  H   H36       1.0  0.10651573849539366  0.5028717783146734  0.10557248357187712  1.0000
  H   H37       1.0  0.02048635674176968  0.07906527195402385  0.45123623750014874  1.0000
  H   H38       1.0  0.020486356353207738  0.4209347279011447  0.951236237537807  1.0000
  H   H39       1.0  0.9795136443389758  0.9209347277563134  0.5487637627175657  1.0000
  H   H40       1.0  0.9795136433221426  0.5790652718091924  0.0487637626774287  1.0000
  H   H41       1.0  0.9371941989747226  0.09486600914633936  0.35515083097671424  1.0000
  H   H42       1.0  0.9371941985861607  0.40513399129449795  0.8551508310143724  1.0000
  H   H43       1.0  0.06280580178181853  0.9051339911496665  0.6448491686902903  1.0000
  H   H44       1.0  0.06280580076498529  0.594866009001508  0.1448491686501532  1.0000
  H   H45       1.0  0.12330784106675088  0.030749601100631567  0.26452599885150235  1.0000
  H   H46       1.0  0.12330784067818899  0.46925039875453706  0.7645259988891606  1.0000
  H   H47       1.0  0.8766921596897902  0.9692503986097056  0.7354740008155021  1.0000
  H   H48       1.0  0.8766921586729571  0.5307496015414689  0.2354740007753651  1.0000
  H   H49       1.0  0.03333446581249625  0.9427485231779338  0.2962842761133447  1.0000
  H   H50       1.0  0.03333446542393428  0.5572514769732407  0.7962842761510028  1.0000
  H   H51       1.0  0.9666655352682494  0.05725147711807212  0.7037157241043698  1.0000
  H   H52       1.0  0.9666655342514163  0.44274852332276515  0.20371572406423286  1.0000
  H   H53       1.0  0.2836526200041158  0.9521866381619657  0.29765099422975605  1.0000
  H   H54       1.0  0.2836526196155539  0.5478133619892087  0.7976509942674143  1.0000
  H   H55       1.0  0.7163473807524252  0.04781336213404017  0.7023490054372483  1.0000
  H   H56       1.0  0.7163473797355921  0.45218663772112844  0.2023490053971114  1.0000
  H   H57       1.0  0.8555450443936821  0.2751325488418524  0.5852766682599978  1.0000
  H   H58       1.0  0.8555450433768488  0.2248674510133162  0.08527666821986084  1.0000
  H   H59       1.0  0.14445495668706362  0.7248674508684848  0.4147233319577167  1.0000
  H   H60       1.0  0.1444549562985016  0.775132548697021  0.9147233319953748  1.0000
  H   H61       1.0  0.011549826969125694  0.3684551475982925  0.6834304168419606  1.0000
  H   H62       1.0  0.011549827357687701  0.13154485225687612  0.18343041680430244  1.0000
  H   H63       1.0  0.9884501723820202  0.6315448526977134  0.31656958282256503  1.0000
  H   H64       1.0  0.9884501719934582  0.8684551474534611  0.8165695828602232  1.0000
  H   H65       1.0  0.9845224150133135  0.5134021361460525  0.655592124842972  1.0000
  H   H66       1.0  0.9845224139964802  0.986597864005122  0.15559212480283502  1.0000
  H   H67       1.0  0.015477586067432247  0.4865978641499533  0.3444078753747425  1.0000
  H   H68       1.0  0.01547758535466574  0.013402136290883935  0.8444078748616907  1.0000
  H   H69       1.0  0.8692000727040295  0.6185295769401419  0.5684618857906696  1.0000
  H   H70       1.0  0.8692000716871964  0.8814704232110325  0.06846188575053264  1.0000
  H   H71       1.0  0.13079992837671614  0.38147042277019527  0.43153811442704487  1.0000
  H   H72       1.0  0.13079992798815418  0.11852957708497326  0.931538114464703  1.0000
  H   H73       1.0  0.6975583184926212  0.6629104513549535  0.4434872141664552  1.0000
  H   H74       1.0  0.6975583195094545  0.8370895487962209  0.9434872142065922  1.0000
  H   H75       1.0  0.30244168085852474  0.3370895489410524  0.5565127854980705  1.0000
  H   H76       1.0  0.30244168124708665  0.1629104514997849  0.0565127854604122  1.0000
  H   H77       1.0  0.5194445725683914  0.6305841375706422  0.31696706800670066  1.0000
  H   H78       1.0  0.5194445721798295  0.8694158625805323  0.8169670680443589  1.0000
  H   H79       1.0  0.4805554281881497  0.36941586213969496  0.6830329316603039  1.0000
  H   H80       1.0  0.4805554271713165  0.1305841377154736  0.18303293162016684  1.0000
  H   H81       1.0  0.36381639745457967  0.5279683990895319  0.2250976070100756  1.0000
  H   H82       1.0  0.3638163970660177  0.9720316010616425  0.7250976070477337  1.0000
  H   H83       1.0  0.6361836018965663  0.472031601206474  0.7749023926544502  1.0000
  H   H84       1.0  0.6361836026093328  0.027968398648694597  0.2749023931675019  1.0000
  H   H85       1.0  0.37721559084663775  0.3888685242294789  0.2647686742040063  1.0000
  H   H86       1.0  0.3772155918634709  0.11113147562568973  0.7647686742441433  1.0000
  H   H87       1.0  0.6227844088287128  0.6111314754808583  0.7352313260112294  1.0000
  H   H88       1.0  0.6227844092172747  0.8888685246703162  0.23523132597357124  1.0000
  B   B1        1.0  0.2598254436017106  0.1870701598949927  0.6021152442489703  1.0000
  B   B2        1.0  0.2598254425848774  0.31292983996017587  0.10211524420883332  1.0000
  B   B3        1.0  0.7401745571548306  0.8129298398153445  0.39788475541803414  1.0000
  B   B4        1.0  0.7401745567662686  0.6870701597501613  0.8978847554556924  1.0000
  C   C1        1.0  0.7272041092187337  0.2503520275219614  0.3593700736349626  1.0000
  C   C2        1.0  0.7272041102355669  0.2496479729188759  0.8593700736750997  1.0000
  C   C3        1.0  0.272795890456617  0.7496479727740445  0.6406299265802732  1.0000
  C   C4        1.0  0.2727958908451789  0.75035202737713  0.14062992654261494  1.0000
  C   C5        1.0  0.9264271161120415  0.2583663795467331  0.38051593297861896  1.0000
  C   C6        1.0  0.9264271171288747  0.2416336208941042  0.880515933018756  1.0000
  C   C7        1.0  0.07357288323910442  0.7416336207492727  0.6194840666859067  1.0000
  C   C8        1.0  0.07357288362766638  0.7583663794019017  0.11948406664824857  1.0000
  C   C9        1.0  0.02552706937103092  0.2711828717328702  0.3248549153506092  1.0000
  C   C10       1.0  0.025527068982468943  0.22881712812229843  0.8248549153882674  1.0000
  C   C11       1.0  0.9744729303043197  0.7288171285631356  0.6751450848646267  1.0000
  C   C12       1.0  0.9744729306928815  0.7711828715880388  0.17514508482696842  1.0000
  C   C13       1.0  0.9261727746358218  0.27513063546220023  0.2512127109408199  1.0000
  C   C14       1.0  0.9261727756526551  0.22486936497863705  0.7512127109809569  1.0000
  C   C15       1.0  0.07382722503952864  0.7248693648338057  0.7487872892744158  1.0000
  C   C16       1.0  0.07382722542809053  0.7751306353173688  0.24878728923675755  1.0000
  C   C17       1.0  0.7260115537085347  0.26545895872782227  0.2319751645578432  1.0000
  C   C18       1.0  0.7260115533199729  0.2345410411273463  0.7319751645955014  1.0000
  C   C19       1.0  0.2739884459668158  0.7345410409825149  0.7680248356573925  1.0000
  C   C20       1.0  0.2739884463553778  0.765458958582991  0.2680248356197344  1.0000
  C   C21       1.0  0.6238946839227537  0.252847766848776  0.2864661566032713  1.0000
  C   C22       1.0  0.6238946835341919  0.24715223300639258  0.7864661566409296  1.0000
  C   C23       1.0  0.3761053171579919  0.7471522334472299  0.7135338436144433  1.0000
  C   C24       1.0  0.3761053161411588  0.7528477667039446  0.21353384357430627  1.0000
  C   C25       1.0  0.44206620458014645  0.13572613029738728  0.3999666712273507  1.0000
  C   C26       1.0  0.44206620559697973  0.36427387014345003  0.8999666712674878  1.0000
  C   C27       1.0  0.5579337947709995  0.8642738699986185  0.6000333284371749  1.0000
  C   C28       1.0  0.5579337951595613  0.6357261301525559  0.10003332839951673  1.0000
  C   C29       1.0  0.3270584778463103  0.08155773914979578  0.3924019774219557  1.0000
  C   C30       1.0  0.32705847745774835  0.4184422607053728  0.8924019774596139  1.0000
  C   C31       1.0  0.6729415218290403  0.9184422605605413  0.60759802279328  1.0000
  C   C32       1.0  0.6729415222176022  0.5815577390049644  0.10759802275562183  1.0000
  C   C33       1.0  0.18822029450336764  0.01740977995972899  0.38393621942880507  1.0000
  C   C34       1.0  0.18822029411480576  0.48259022048110833  0.8839362194664634  1.0000
  C   C35       1.0  0.8117797062531734  0.9825902203362769  0.6160637802381994  1.0000
  C   C36       1.0  0.8117797066417354  0.5174097798148976  0.11606378020054124  1.0000
  C   C37       1.0  0.2657952368794865  0.9529149740038019  0.4407069807412772  1.0000
  C   C38       1.0  0.2657952364909246  0.5470850261473726  0.9407069807789354  1.0000
  C   C39       1.0  0.7342047638770545  0.04708502629220397  0.5592930189257272  1.0000
  C   C40       1.0  0.7342047628602213  0.4529149741486333  0.05929301888559026  1.0000
  C   C41       1.0  0.9973486754580926  0.050891116762318896  0.39707588286736084  1.0000
  C   C42       1.0  0.9973486764749258  0.4491088830928497  0.8970758829074977  1.0000
  C   C43       1.0  0.0026513238930533827  0.9491088829480182  0.6029241167971648  1.0000
  C   C44       1.0  0.002651324281615328  0.5508911166174875  0.10292411675950666  1.0000
  C   C45       1.0  0.15557030065809083  0.9836639185698176  0.305455178150436  1.0000
  C   C46       1.0  0.1555703016749241  0.5163360815813569  0.8054551781905731  1.0000
  C   C47       1.0  0.8444296990172597  0.01633608114051958  0.6945448220647997  1.0000
  C   C48       1.0  0.8444296994058217  0.483663918714649  0.19454482202714152  1.0000
  C   C49       1.0  0.843851968609065  0.3381210456448731  0.5754979814802792  1.0000
  C   C50       1.0  0.8438519689976268  0.1618789542102955  0.07549798144262096  1.0000
  C   C51       1.0  0.1561480310662856  0.6618789540654642  0.4245020187349566  1.0000
  C   C52       1.0  0.1561480306777237  0.8381210455000417  0.9245020187726148  1.0000
  C   C53       1.0  0.9323784023207154  0.3908645657480186  0.6304948457423802  1.0000
  C   C54       1.0  0.9323784027092772  0.10913543410714999  0.13049484570472203  1.0000
  C   C55       1.0  0.06762159735463526  0.6091354339623186  0.36950515447285553  1.0000
  C   C56       1.0  0.06762159804726385  0.8908645661888559  0.8695051539622825  1.0000
  C   C57       1.0  0.9177163320928945  0.4698868185788133  0.6149201187418116  1.0000
  C   C58       1.0  0.9177163324814566  0.030113181862023983  0.1149201187041534  1.0000
  C   C59       1.0  0.08228366758245603  0.5301131817171926  0.38507988147342415  1.0000
  C   C60       1.0  0.08228366859928923  0.9698868184339818  0.8850798815135612  1.0000
  C   C61       1.0  0.8162909113921207  0.4954538642688418  0.5449019041393637  1.0000
  C   C62       1.0  0.8162909103752876  0.004546135586326855  0.044901904099226744  1.0000
  C   C63       1.0  0.18370908968862487  0.5045461354414955  0.4550980960783507  1.0000
  C   C64       1.0  0.18370908930006297  0.9954538641240103  0.9550980961160089  1.0000
  C   C65       1.0  0.8013457075333519  0.5767805670717381  0.5263375896211345  1.0000
  C   C66       1.0  0.8013457079219138  0.9232194324937677  0.026337589583476363  1.0000
  C   C67       1.0  0.198654291817794  0.42321943263859907  0.4736624100433911  1.0000
  C   C68       1.0  0.1986542928346272  0.0767805672165695  0.973662410083528  1.0000
  C   C69       1.0  0.7073364812344852  0.6010694933098578  0.45798221669048805  1.0000
  C   C70       1.0  0.7073364808459233  0.8989305068413166  0.9579822167281462  1.0000
  C   C71       1.0  0.2926635181166608  0.3989305064004793  0.5420177829740377  1.0000
  C   C72       1.0  0.2926635188294273  0.10106949345468932  0.042017783487089566  1.0000
  C   C73       1.0  0.6184301448661128  0.5454490812737631  0.4032898567033113  1.0000
  C   C74       1.0  0.6184301444775508  0.9545509182917427  0.9032898567409694  1.0000
  C   C75       1.0  0.3815698558904283  0.454550918436574  0.5967101429636932  1.0000
  C   C76       1.0  0.381569854873595  0.045449081418594585  0.0967101429235562  1.0000
  C   C77       1.0  0.522949991132196  0.5686644949353211  0.33149228919365564  1.0000
  C   C78       1.0  0.5229499921490293  0.9313355052158534  0.8314922892337927  1.0000
  C   C79       1.0  0.47705000854315455  0.4313355053606848  0.6685077110215801  1.0000
  C   C80       1.0  0.4770500089317164  0.06866449449448378  0.16850771098392187  1.0000
  C   C81       1.0  0.43683756723454414  0.5126400037060507  0.2812295556810027  1.0000
  C   C82       1.0  0.4368375668459822  0.987359995859455  0.7812295557186609  1.0000
  C   C83       1.0  0.5631624324408064  0.4873599960042865  0.718770444534233  1.0000
  C   C84       1.0  0.5631624328293683  0.01264000385088209  0.21877044449657482  1.0000
  C   C85       1.0  0.44550578999167034  0.43373977143547887  0.30383678644935835  1.0000
  C   C86       1.0  0.4455057892789039  0.06626022841968972  0.8038367859363065  1.0000
  C   C87       1.0  0.5544942110890755  0.5662602282748583  0.6961632137683562  1.0000
  C   C88       1.0  0.5544942100722422  0.9337397718763162  0.1961632137282192  1.0000
  C   C89       1.0  0.6247473154790967  0.4637242812978219  0.4198806872635965  1.0000
  C   C90       1.0  0.62474731649593  0.03627571855734671  0.9198806873037336  1.0000
  C   C91       1.0  0.37525268387204935  0.536275718998184  0.5801193124009292  1.0000
  C   C92       1.0  0.3752526845848158  0.9637242811529904  0.08011931291398104  1.0000
  C   C93       1.0  0.7295910249511754  0.4380356800685206  0.49209598250267006  1.0000
  C   C94       1.0  0.7295910245626134  0.06196431978664799  0.9920959825403283  1.0000
  C   C95       1.0  0.27040897580536577  0.5619643196418166  0.5079040171643345  1.0000
  C   C96       1.0  0.2704089751127371  0.9380356805093578  0.007904017674907528  1.0000
  N   N1        1.0  0.7460046241954367  0.3604915443522899  0.5089392317498066  1.0000
  N   N2        1.0  0.7460046245839986  0.1395084555028787  0.008939231712148445  1.0000
  N   N3        1.0  0.253995376885309  0.6395084553580473  0.49106076846790797  1.0000
  N   N4        1.0  0.2539953764967471  0.8604915447931273  0.9910607685055662  1.0000
  N   N5        1.0  0.5365727076448406  0.40954976346993005  0.3705470770170668  1.0000
  N   N6        1.0  0.5365727072562785  0.09045023638523855  0.870547077054725  1.0000
  N   N7        1.0  0.4634272920305101  0.5904502362404072  0.6294529231981688  1.0000
  N   N8        1.0  0.463427292419072  0.9095497633250987  0.1294529231605107  1.0000
  F   F1        1.0  0.4166978726463839  0.2099635723180647  0.5703829243049243  1.0000
  F   F2        1.0  0.4166978730349458  0.2900364281227726  0.07038292426726614  1.0000
  F   F3        1.0  0.5833021267047621  0.7900364279779413  0.42961707535960136  1.0000
  F   F4        1.0  0.5833021277215952  0.7099635721732334  0.9296170753997383  1.0000
  F   F5        1.0  0.08672076371992699  0.18867494777928012  0.5468058570211052  1.0000
  F   F6        1.0  0.08672076410848893  0.3113250520758885  0.04680585698344696  1.0000
  F   F7        1.0  0.9132792359554236  0.811325051931057  0.4531941431941306  1.0000
  F   F8        1.0  0.9132792369722568  0.6886749482201174  0.9531941432342678  1.0000
  F   F9        1.0  0.29415592407505037  0.11179303176502288  0.6328547570249595  1.0000
  F   F10       1.0  0.2941559244636122  0.3882069680901457  0.13285475698730131  1.0000
  F   F11       1.0  0.7058440752760957  0.8882069679453143  0.36714524263956616  1.0000
  F   F12       1.0  0.7058440762929289  0.6117930316201915  0.8671452426797032  1.0000
  F   F13       1.0  0.2471153238350476  0.24234697064517235  0.6581055012343181  1.0000
  F   F14       1.0  0.24711532422360952  0.2576530292099962  0.15810550119665992  1.0000
  F   F15       1.0  0.7528846758403029  0.7576530290651649  0.3418944989809176  1.0000
  F   F16       1.0  0.7528846768571361  0.7423469705003409  0.8418944990210546  1.0000
  I   I1        1.0  0.572220468203654  0.23643966837054395  0.44291837262407185  1.0000
  I   I2        1.0  0.5722204678150921  0.26356033207029333  0.9429183726617301  1.0000
  I   I3        1.0  0.4277795328770917  0.7635603319254619  0.5570816275936428  1.0000
  I   I4        1.0  0.4277795318602584  0.7364396682257125  0.057081627553505716  1.0000
