data_image0
_chemical_formula_structural       H56C56N12O8Cl8
_chemical_formula_sum              "H56 C56 N12 O8 Cl8"
_cell_length_a       8.54954615709278
_cell_length_b       16.909243137834693
_cell_length_c       10.156040700530658
_cell_angle_alpha    90.0
_cell_angle_beta     95.37900568317777
_cell_angle_gamma    90.0

_space_group_name_H-M_alt    "P 1"
_space_group_IT_number       1

loop_
  _space_group_symop_operation_xyz
  'x, y, z'

loop_
  _atom_site_type_symbol
  _atom_site_label
  _atom_site_symmetry_multiplicity
  _atom_site_fract_x
  _atom_site_fract_y
  _atom_site_fract_z
  _atom_site_occupancy
  H   H1        1.0  0.23381266070945236  0.3762211553848787  0.600793446904441  1.0000
  H   H2        1.0  0.7661873396637376  0.876221155448906  0.8992065535379649  1.0000
  H   H3        1.0  0.7661873395204705  0.6237788447431759  0.39920655315516124  1.0000
  H   H4        1.0  0.23381266056618538  0.12377884467914861  0.10079344652163752  1.0000
  H   H5        1.0  0.02533357775352861  0.6870449029150137  0.625632154686178  1.0000
  H   H6        1.0  0.9746664225154759  0.1870449028509865  0.8743678447672496  1.0000
  H   H7        1.0  0.9746664224763942  0.3129550972130408  0.3743678453734242  1.0000
  H   H8        1.0  0.02533357771444719  0.8129550972770682  0.12563215529235264  1.0000
  H   H9        1.0  0.8040606174873806  0.6312211725265184  0.7332796828219706  1.0000
  H   H10       1.0  0.19593938278162368  0.13122117246249107  0.766720316631457  1.0000
  H   H11       1.0  0.19593938274254225  0.36877882760153624  0.2667203172376316  1.0000
  H   H12       1.0  0.8040606173441136  0.8687788276655636  0.23327968243916714  1.0000
  H   H13       1.0  0.7876970735192901  0.4873506621689789  0.7794761379816029  1.0000
  H   H14       1.0  0.2123029268538998  0.9873506616416138  0.7205238624608029  1.0000
  H   H15       1.0  0.2123029267106328  0.5126493379590757  0.2205238620779994  1.0000
  H   H16       1.0  0.787697073376023  0.01264933789504843  0.27947613759879936  1.0000
  H   H17       1.0  0.9954967576770138  0.39558093259853344  0.7122558841497728  1.0000
  H   H18       1.0  0.004503242591990473  0.8955809320711683  0.787744115303655  1.0000
  H   H19       1.0  0.004503242552909043  0.6044190675295211  0.28774411590982946  1.0000
  H   H20       1.0  0.9954967576379324  0.10441906746549387  0.21225588475594734  1.0000
  H   H21       1.0  0.45696964746525387  0.6847989632422307  0.7248993544344249  1.0000
  H   H22       1.0  0.5430303516335531  0.1847989631782033  0.7751006450139757  1.0000
  H   H23       1.0  0.543030352764669  0.315201036885824  0.27510064562517733  1.0000
  H   H24       1.0  0.45696964742617247  0.8152010369498514  0.22489935504059946  1.0000
  H   H25       1.0  0.4936512232060046  0.8310604647086234  0.7245681771160459  1.0000
  H   H26       1.0  0.5063487771671852  0.331060464644596  0.7754318233263598  1.0000
  H   H27       1.0  0.5063487770239182  0.1689395354194313  0.27543182294355634  1.0000
  H   H28       1.0  0.4936512230627377  0.6689395348920661  0.22456817673324247  1.0000
  H   H29       1.0  0.3532006533724216  0.9127629506648878  0.5460585165793175  1.0000
  H   H30       1.0  0.6467993458305709  0.412762951192253  0.9539414838580613  1.0000
  H   H31       1.0  0.6467993456873039  0.08723704887177434  0.4539414834752578  1.0000
  H   H32       1.0  0.35320065439935205  0.5872370489358016  0.04605851620154095  1.0000
  H   H33       1.0  0.17581964880958184  0.8484001911298467  0.3702649713882317  1.0000
  H   H34       1.0  0.8241803513812597  0.34840019106581926  0.12973502927754507  1.0000
  H   H35       1.0  0.8241803514203411  0.15159980899820807  0.6297350286713704  1.0000
  H   H36       1.0  0.17581964884866327  0.6515998090622355  0.8702649707820573  1.0000
  H   H37       1.0  0.13811719827077057  0.7029160609445249  0.3692411863580615  1.0000
  H   H38       1.0  0.8618828019200709  0.20291606088049757  0.13075881430771527  1.0000
  H   H39       1.0  0.8618828019591523  0.29708393918352977  0.6307588137015407  1.0000
  H   H40       1.0  0.138117198309852  0.797083939247557  0.869241185751887  1.0000
  H   H41       1.0  0.13101436608617895  0.21976077993020388  0.27442753592503516  1.0000
  H   H42       1.0  0.868985634000477  0.7197607799942313  0.2255724637517636  1.0000
  H   H43       1.0  0.868985634143744  0.7802392201978509  0.7255724641345671  1.0000
  H   H44       1.0  0.13101436622944596  0.28023922013382346  0.7744275363078386  1.0000
  H   H45       1.0  0.1377641738040152  0.15863138214614883  0.3900359329327645  1.0000
  H   H46       1.0  0.8622358263868262  0.6586313822101763  0.10996406773301233  1.0000
  H   H47       1.0  0.8622358264259077  0.8413686179819059  0.6099640671268378  1.0000
  H   H48       1.0  0.1377641738430966  0.34136861791787854  0.8900359323265898  1.0000
  H   H49       1.0  0.3216339554855882  0.08496016813346058  0.5276546590181528  1.0000
  H   H50       1.0  0.6783660447834162  0.5849601681974879  0.9723453404352751  1.0000
  H   H51       1.0  0.6783660447443348  0.915039831994594  0.47234534104144954  1.0000
  H   H52       1.0  0.3216339554465067  0.41503983193056676  0.027654659624327296  1.0000
  H   H53       1.0  0.3280219044863111  0.045813882601678714  0.3920651194801313  1.0000
  H   H54       1.0  0.6719780956003448  0.5458138826657061  0.10793488019666748  1.0000
  H   H55       1.0  0.6719780957436118  0.9541861175263759  0.607934880579471  1.0000
  H   H56       1.0  0.3280219046295781  0.45418611746234866  0.8920651198629347  1.0000
  C   C1        1.0  0.1385791386799806  0.5728605775574896  0.605859733757523  1.0000
  C   C2        1.0  0.8614208605230119  0.07286057749346228  0.8941402666798558  1.0000
  C   C3        1.0  0.8614208615499424  0.42713942257056503  0.39414026630207927  1.0000
  C   C4        1.0  0.13857913853671358  0.9271394226345924  0.10585973337471952  1.0000
  C   C5        1.0  0.020012671290218928  0.6233685182759626  0.6430214928122431  1.0000
  C   C6        1.0  0.9799873279127735  0.12336851821193523  0.8569785076251356  1.0000
  C   C7        1.0  0.9799873277695065  0.3766314818520921  0.35697850724233215  1.0000
  C   C8        1.0  0.020012671146951922  0.8766314819161195  0.1430214924294396  1.0000
  C   C9        1.0  0.8947817317156039  0.5916478004633565  0.7025770497268442  1.0000
  C   C10       1.0  0.10521826865758592  0.09164780099072167  0.7974229507155615  1.0000
  C   C11       1.0  0.10521826851431894  0.40835219907330567  0.2974229503327581  1.0000
  C   C12       1.0  0.894781731572337  0.908352199137333  0.20257704934404064  1.0000
  C   C13       1.0  0.8849109057097428  0.5095345048721854  0.7276906732888334  1.0000
  C   C14       1.0  0.11508909466344716  0.009534504808158146  0.7723093271535724  1.0000
  C   C15       1.0  0.11508909452018017  0.49046549525586924  0.27230932677076886  1.0000
  C   C16       1.0  0.8849109055664758  0.9904654947285039  0.2276906729060299  1.0000
  C   C17       1.0  0.9970601113742457  0.4584802286421408  0.6879789735188853  1.0000
  C   C18       1.0  0.0029398888947587236  0.9584802287061681  0.8120210259345424  1.0000
  C   C19       1.0  0.002939888855677313  0.5415197714859139  0.31202102654071706  1.0000
  C   C20       1.0  0.9970601113351641  0.041519771421886544  0.18797897412505973  1.0000
  C   C21       1.0  0.1252892914349544  0.48885599625120324  0.6262464387616227  1.0000
  C   C22       1.0  0.8747107089382355  0.9888559963152305  0.873753561680783  1.0000
  C   C23       1.0  0.8747107087949685  0.511144003285459  0.37375356129797954  1.0000
  C   C24       1.0  0.12528929129168742  0.011144003812824125  0.12624643837881924  1.0000
  C   C25       1.0  0.37329271608557724  0.46810849163847307  0.5465827112002777  1.0000
  C   C26       1.0  0.6267072841834271  0.9681084917025005  0.9534172882531501  1.0000
  C   C27       1.0  0.6267072840401601  0.5318915084895816  0.4534172878703466  1.0000
  C   C28       1.0  0.3732927160464957  0.03189150842555422  0.046582711806452216  1.0000
  C   C29       1.0  0.38985269386878296  0.5526866870279527  0.5273382315033532  1.0000
  C   C30       1.0  0.610147306504407  0.052686686963925394  0.9726617689390525  1.0000
  C   C31       1.0  0.6101473063611399  0.4473133131001019  0.4726617685562491  1.0000
  C   C32       1.0  0.3898526937255159  0.9473133131641293  0.0273382311205497  1.0000
  C   C33       1.0  0.2957050865455649  0.6869585927243032  0.547639108481212  1.0000
  C   C34       1.0  0.704294913827625  0.1869585926602758  0.9523608919611937  1.0000
  C   C35       1.0  0.704294913684358  0.3130414074037516  0.45236089157839027  1.0000
  C   C36       1.0  0.2957050864022979  0.8130414074677789  0.04763910809840851  1.0000
  C   C37       1.0  0.3966962101149009  0.7214755675671369  0.6476310255242467  1.0000
  C   C38       1.0  0.6033037901541034  0.2214755675031096  0.8523689739291811  1.0000
  C   C39       1.0  0.6033037900108363  0.27852443256091775  0.3523689735463776  1.0000
  C   C40       1.0  0.3966962100758194  0.7785244326249451  0.14763102613042112  1.0000
  C   C41       1.0  0.41597120039309793  0.8034553308658454  0.6465572737152112  1.0000
  C   C42       1.0  0.5840287999800919  0.3034553313932107  0.8534427267271946  1.0000
  C   C43       1.0  0.5840287998368249  0.19654466867081669  0.3534427263443911  1.0000
  C   C44       1.0  0.4159712002498309  0.696544668734844  0.14655727333240764  1.0000
  C   C45       1.0  0.33674693699113945  0.8489432213485945  0.5469698197063808  1.0000
  C   C46       1.0  0.6632530633820505  0.3489432212845671  0.953030180736025  1.0000
  C   C47       1.0  0.6632530632387834  0.15105677877946017  0.4530301803532215  1.0000
  C   C48       1.0  0.33674693684787244  0.6510567788434876  0.046969819323577314  1.0000
  C   C49       1.0  0.23767411149988657  0.81275904947215  0.44764841042733716  1.0000
  C   C50       1.0  0.7623258885867693  0.3127590494081227  0.052351589249461664  1.0000
  C   C51       1.0  0.7623258887300364  0.1872409500645121  0.5523515896322652  1.0000
  C   C52       1.0  0.2376741103687705  0.6872409501285395  0.9476484098161354  1.0000
  C   C53       1.0  0.215777151544073  0.7308279199291511  0.4468540646708929  1.0000
  C   C54       1.0  0.7842228486467685  0.23082791986512374  0.05314593599488392  1.0000
  C   C55       1.0  0.7842228486858499  0.2691720801989036  0.5531459353887094  1.0000
  C   C56       1.0  0.2157771515831544  0.7691720802629309  0.9468540640647184  1.0000
  N   N1        1.0  0.2711050609688526  0.6021262446229032  0.5546755582908142  1.0000
  N   N2        1.0  0.7288949394043372  0.10212624455887591  0.9453244421515916  1.0000
  N   N3        1.0  0.7288949392610703  0.3978737549137589  0.44532444176878816  1.0000
  N   N4        1.0  0.2711050608255856  0.8978737549777862  0.05467555790801065  1.0000
  N   N5        1.0  0.2403183655352059  0.4399212601867267  0.5907307969055207  1.0000
  N   N6        1.0  0.7596816335636011  0.9399212602507541  0.90926920254288  1.0000
  N   N7        1.0  0.7596816346947171  0.560078739941328  0.4092692031540816  1.0000
  N   N8        1.0  0.24031836539193893  0.06007873987730056  0.09073079652271727  1.0000
  N   N9        1.0  0.4838752484057973  0.41696143715766865  0.5198324100760663  1.0000
  N   N10       1.0  0.5161247519673925  0.916961437221696  0.9801675903663395  1.0000
  N   N11       1.0  0.5161247518241255  0.583038562970386  0.480167589983536  1.0000
  N   N12       1.0  0.4838752482625304  0.08303856290635868  0.019832409693262835  1.0000
  O   O1        1.0  0.06546150525324892  0.19688797558010174  0.3406056602202809  1.0000
  O   O2        1.0  0.9345384948334069  0.6968879750527366  0.1593943394565179  1.0000
  O   O3        1.0  0.9345384949766741  0.8031120245479529  0.6593943398393214  1.0000
  O   O4        1.0  0.06546150539651592  0.30311202448392555  0.8406056606030843  1.0000
  O   O5        1.0  0.25779983233022835  0.07766001407016009  0.44307212518188727  1.0000
  O   O6        1.0  0.7422001678606132  0.5776600141341874  0.05692787548388959  1.0000
  O   O7        1.0  0.7422001667294972  0.9223399860578946  0.556927874872688  1.0000
  O   O8        1.0  0.25779983236930976  0.42233998599386724  0.9430721245757127  1.0000
  Cl  Cl1       1.0  0.5009223549332626  0.030697989009250866  0.6926147426287664  1.0000
  Cl  Cl2       1.0  0.4990776454399274  0.5306979890732783  0.8073852578136392  1.0000
  Cl  Cl3       1.0  0.4990776452966604  0.9693020111188039  0.3073852574308358  1.0000
  Cl  Cl4       1.0  0.5009223547899956  0.4693020110547765  0.19261474224596295  1.0000
  Cl  Cl5       1.0  0.24314319907875626  0.26184858387262994  0.6056331230277926  1.0000
  Cl  Cl6       1.0  0.7568568011902481  0.7618485839366572  0.8943668764256351  1.0000
  Cl  Cl7       1.0  0.7568568011511666  0.7381514162554247  0.39436687703180967  1.0000
  Cl  Cl8       1.0  0.24314319903967485  0.2381514161913974  0.10563312363396717  1.0000
