data_image0
_chemical_formula_structural       H20C28N6O8S2Br2
_chemical_formula_sum              "H20 C28 N6 O8 S2 Br2"
_cell_length_a       8.37361892400934
_cell_length_b       4.921584884695943
_cell_length_c       17.37000915869661
_cell_angle_alpha    90.0
_cell_angle_beta     89.09407932373063
_cell_angle_gamma    90.0

_space_group_name_H-M_alt    "P 1"
_space_group_IT_number       1

loop_
  _space_group_symop_operation_xyz
  'x, y, z'

loop_
  _atom_site_type_symbol
  _atom_site_label
  _atom_site_symmetry_multiplicity
  _atom_site_fract_x
  _atom_site_fract_y
  _atom_site_fract_z
  _atom_site_occupancy
  H   H1        1.0  0.7172978984467133  0.35992005045127573  0.13891202141054815  1.0000
  H   H2        1.0  0.28270210177282123  0.8599200520060652  0.8610879786476028  1.0000
  H   H3        1.0  0.8554395593213251  0.6345818721346607  0.1298276346297297  1.0000
  H   H4        1.0  0.14456044089820946  0.13458187261173704  0.8701723654284211  1.0000
  H   H5        1.0  0.5893798572905579  0.14908016973994115  0.25839583049344905  1.0000
  H   H6        1.0  0.41062014292897675  0.6490801692628648  0.7416041695647019  1.0000
  H   H7        1.0  0.9356668272397356  0.8976015437094146  0.46198633543702994  1.0000
  H   H8        1.0  0.064333172979799  0.3976015421546251  0.538013664621121  1.0000
  H   H9        1.0  0.6098231258754201  0.2787449575980958  0.54637546322113  1.0000
  H   H10       1.0  0.39017687434411447  0.7787449571210195  0.453624536837021  1.0000
  H   H11       1.0  0.5524873937770711  0.13670382930753122  0.4123321237433001  1.0000
  H   H12       1.0  0.44751260524811254  0.6367038288304548  0.5876678763202139  1.0000
  H   H13       1.0  0.31315043817550503  0.6230970819046346  0.2612597460183242  1.0000
  H   H14       1.0  0.6868495620440296  0.12309708238171095  0.7387402540398267  1.0000
  H   H15       1.0  0.12936782163832283  0.25108594669221973  0.21789226735356726  1.0000
  H   H16       1.0  0.8706321785812118  0.7510859462151434  0.7821077327045836  1.0000
  H   H17       1.0  0.2705498783347175  0.40687468100506263  0.9822552659369302  1.0000
  H   H18       1.0  0.7294501218848171  0.9068746805279863  0.017744734121220757  1.0000
  H   H19       1.0  0.4505932570370752  0.7732792746975288  0.02499366114895523  1.0000
  H   H20       1.0  0.5494067431824593  0.27327927314273937  0.9750063389091956  1.0000
  C   C1        1.0  0.7843495551383345  0.528119711616145  0.23951795488125707  1.0000
  C   C2        1.0  0.21565044388684923  0.02811971006135557  0.760482045182257  1.0000
  C   C3        1.0  0.7118000159443715  0.43360583226674154  0.36137385355025475  1.0000
  C   C4        1.0  0.288199984275163  0.9336058317896653  0.6386261465078962  1.0000
  C   C5        1.0  0.821771320370202  0.6459159690377655  0.3760200368159015  1.0000
  C   C6        1.0  0.17822867984933258  0.1459159695148419  0.6239799632422494  1.0000
  C   C7        1.0  0.8529251265378112  0.7327819461601762  0.4506635409455011  1.0000
  C   C8        1.0  0.14707487368172342  0.23278194663725257  0.5493364591126498  1.0000
  C   C9        1.0  0.7729751188705842  0.5984085693935867  0.5106269285969408  1.0000
  C   C10       1.0  0.22702488015459946  0.09840856987066307  0.4893730714665732  1.0000
  C   C11       1.0  0.6668097033798114  0.3837870166322841  0.49808779285556787  1.0000
  C   C12       1.0  0.3331902956453723  0.8837870161552077  0.5019122072079462  1.0000
  C   C13       1.0  0.63509516015249  0.30241725681257897  0.423046349954124  1.0000
  C   C14       1.0  0.36490484006704443  0.8024172563355025  0.5769536501040269  1.0000
  C   C15       1.0  0.5040607585542405  0.9432640640692324  0.16972695517639674  1.0000
  C   C16       1.0  0.4959392416730534  0.4432640645463087  0.8302730443060022  1.0000
  C   C17       1.0  0.3940149083011309  0.7195008809075472  0.1458765321183609  1.0000
  C   C18       1.0  0.6059850919184037  0.21950088138462345  0.8541234679397901  1.0000
  C   C19       1.0  0.30289334053992945  0.5737881670559593  0.200444081465069  1.0000
  C   C20       1.0  0.6971066596796052  0.0737881675330356  0.799555918593082  1.0000
  C   C21       1.0  0.2007399525618836  0.36807812573406756  0.17692433949922218  1.0000
  C   C22       1.0  0.799260047657651  0.8680781252569914  0.8230756605589287  1.0000
  C   C23       1.0  0.19245656092039717  0.30986501619472046  0.09840729674702448  1.0000
  C   C24       1.0  0.8075434392991374  0.8098650157176441  0.9015927033111265  1.0000
  C   C25       1.0  0.28073797039438464  0.45299818294970584  0.04314313856818757  1.0000
  C   C26       1.0  0.71926202982515  0.9529981824726296  0.9568568614899633  1.0000
  C   C27       1.0  0.38166448965157557  0.6583152959679501  0.06740341632119984  1.0000
  C   C28       1.0  0.618335510567959  0.15831529644502654  0.932596583736951  1.0000
  N   N1        1.0  0.693012210800518  0.3733249294781821  0.28454594639990854  1.0000
  N   N2        1.0  0.3069877894190165  0.8733249290011057  0.7154540536582423  1.0000
  N   N3        1.0  0.7865313669457663  0.5098116884668975  0.16297279188049482  1.0000
  N   N4        1.0  0.21346863327376817  0.00981168894397385  0.8370272081776561  1.0000
  N   N5        1.0  0.09013951042415495  0.088180726365103  0.07248210604641946  1.0000
  N   N6        1.0  0.9098604897953796  0.5881807258880266  0.9275178940117315  1.0000
  O   O1        1.0  0.5112500293182718  0.9802838197512999  0.24449126026795878  1.0000
  O   O2        1.0  0.48874997090126276  0.4802838202283762  0.7555087397901921  1.0000
  O   O3        1.0  0.5793104688590828  0.07902612453346487  0.12078892037629618  1.0000
  O   O4        1.0  0.42068953136045173  0.5790261240563885  0.8792110796818547  1.0000
  O   O5        1.0  0.10281536797739578  0.013428657952342332  0.0046201416786902415  1.0000
  O   O6        1.0  0.8971846322421387  0.5134286595071318  0.9953798583794607  1.0000
  O   O7        1.0  0.996189893564687  0.9840664894473747  0.12045533815748954  1.0000
  O   O8        1.0  0.003810106654847575  0.4840664899244511  0.8795446619006614  1.0000
  S   S1        1.0  0.9044141572575943  0.7625052961434078  0.2894055059698932  1.0000
  S   S2        1.0  0.09558584296194016  0.2625052945886184  0.7105944940882577  1.0000
  Br  Br1       1.0  0.8096064387544558  0.7134568278846076  0.6139527742224665  1.0000
  Br  Br2       1.0  0.19039356147283798  0.21345682632981813  0.38604722525993246  1.0000
