data_image0
_chemical_formula_structural       H28C28N4O8
_chemical_formula_sum              "H28 C28 N4 O8"
_cell_length_a       6.574265139620345
_cell_length_b       6.878960914042667
_cell_length_c       14.099399924264679
_cell_angle_alpha    87.81819876222625
_cell_angle_beta     88.64272564243369
_cell_angle_gamma    80.3004977858663

_space_group_name_H-M_alt    "P 1"
_space_group_IT_number       1

loop_
  _space_group_symop_operation_xyz
  'x, y, z'

loop_
  _atom_site_type_symbol
  _atom_site_label
  _atom_site_symmetry_multiplicity
  _atom_site_fract_x
  _atom_site_fract_y
  _atom_site_fract_z
  _atom_site_occupancy
  H   H1        1.0  0.43452962420381697  0.18609851331427346  0.2183272254107292  1.0000
  H   H2        1.0  0.565470376200228  0.8139014866501505  0.781672774659316  1.0000
  H   H3        1.0  0.9086128855553909  0.2655076618866275  0.4112293723131816  1.0000
  H   H4        1.0  0.09138711332655167  0.7344923380766493  0.5887706270648166  1.0000
  H   H5        1.0  0.6896025249267754  0.38649631436929976  0.2708280771199187  1.0000
  H   H6        1.0  0.3103974739562677  0.613503685592249  0.7291719229673489  1.0000
  H   H7        1.0  0.8599844797240865  0.41173710815961795  0.11105454025939722  1.0000
  H   H8        1.0  0.14001552067995843  0.588262891804806  0.888945459810648  1.0000
  H   H9        1.0  0.24990349319036706  0.061834518321861334  0.46074758174493313  1.0000
  H   H10       1.0  0.7500965072136778  0.9381654816425626  0.5392524183251121  1.0000
  H   H11       1.0  0.46653234349353173  0.04322111452406019  0.382181553700536  1.0000
  H   H12       1.0  0.5334676553895112  0.9567788854374887  0.6178184463867317  1.0000
  H   H13       1.0  0.5065864194448594  0.25773687262944267  0.5163360348885282  1.0000
  H   H14       1.0  0.49341357943708314  0.7422631273338343  0.48366396448946997  1.0000
  H   H15       1.0  0.2728224613540149  0.4166925287265381  0.4865493261162714  1.0000
  H   H16       1.0  0.727177537529028  0.5833074712350108  0.5134506739709961  1.0000
  H   H17       1.0  0.4890531737332823  0.3998321562677425  0.4081773787664445  1.0000
  H   H18       1.0  0.5109468251497609  0.6001678436938064  0.5918226213208232  1.0000
  H   H19       1.0  0.25770791048162495  0.311894722175187  0.06775677927501093  1.0000
  H   H20       1.0  0.74229208992242  0.6881052777892369  0.9322432207950343  1.0000
  H   H21       1.0  0.3967294423972032  0.3199214402787811  0.8223565193893132  1.0000
  H   H22       1.0  0.6032705564858397  0.6800785596827678  0.17764348069795433  1.0000
  H   H23       1.0  0.6151560491371486  0.3057955001589183  0.6745765316208809  1.0000
  H   H24       1.0  0.38484395126689624  0.6942044998055056  0.32542346844916425  1.0000
  H   H25       1.0  0.15878650153266022  0.12351492305640234  0.8420972207879405  1.0000
  H   H26       1.0  0.8412134988713846  0.8764850769080217  0.15790277928210467  1.0000
  H   H27       1.0  0.9406979425611391  0.14850736405652526  0.9887516328165119  1.0000
  H   H28       1.0  0.05930205784290581  0.8514926359078986  0.011248367253533176  1.0000
  C   C1        1.0  0.27083163425544526  0.2319841628322778  0.23525777600543096  1.0000
  C   C2        1.0  0.7291683661485997  0.7680158371321463  0.7647422240646142  1.0000
  C   C3        1.0  0.19113375889187417  0.21690920897017266  0.32757477038818666  1.0000
  C   C4        1.0  0.8088662415121707  0.7830907909942512  0.6724252296818585  1.0000
  C   C5        1.0  0.97784560202417  0.2753963739441735  0.34048954842044876  1.0000
  C   C6        1.0  0.022154398379874866  0.7246036260202503  0.6595104516495964  1.0000
  C   C7        1.0  0.8558943724567097  0.3437110831048632  0.2627439783584199  1.0000
  C   C8        1.0  0.144105627947335  0.6562889168595607  0.7372560217116253  1.0000
  C   C9        1.0  0.9490728442071813  0.35631793100441206  0.1735212765157948  1.0000
  C   C10       1.0  0.05092715467586169  0.6436820689571368  0.8264787235714727  1.0000
  C   C11       1.0  0.33162407344778083  0.14484142796714944  0.40861905246191205  1.0000
  C   C12       1.0  0.6683759269562641  0.8551585719972745  0.5913809476081332  1.0000
  C   C13       1.0  0.40410697246744365  0.31472224855915554  0.457804990957067  1.0000
  C   C14       1.0  0.5958930264155994  0.6852777514023934  0.5421950091302006  1.0000
  C   C15       1.0  0.5633455750521497  0.2804910571263739  0.8264266723116691  1.0000
  C   C16       1.0  0.4366544253518953  0.71950894283805  0.17357332775837614  1.0000
  C   C17       1.0  0.6835289105272606  0.2724187764984135  0.7439124400010171  1.0000
  C   C18       1.0  0.31647108987678435  0.7275812234660103  0.2560875600690281  1.0000
  C   C19       1.0  0.8971127173422722  0.2174613842317613  0.7510167809944456  1.0000
  C   C20       1.0  0.10288728279991172  0.7825386172083316  0.2489832190519136  1.0000
  C   C21       1.0  0.9930581186457538  0.17089973894621366  0.8380829131997618  1.0000
  C   C22       1.0  0.006941881758291128  0.8291002610182103  0.16191708687028336  1.0000
  C   C23       1.0  0.8703447539405057  0.18189227990930568  0.9198176969903421  1.0000
  C   C24       1.0  0.12965524646353918  0.8181077200551183  0.08018230307970314  1.0000
  C   C25       1.0  0.6556455827158365  0.23498806738127712  0.9148307867312473  1.0000
  C   C26       1.0  0.34435441768710784  0.7650119325848748  0.08516921262952853  1.0000
  C   C27       1.0  0.5313942971678841  0.23595279777518716  0.0053828493810980935  1.0000
  C   C28       1.0  0.4686057032361608  0.7640472021892368  0.9946171506889471  1.0000
  N   N1        1.0  0.15334025554867245  0.30059207912115704  0.16062482837896372  1.0000
  N   N2        1.0  0.8466597448553724  0.6994079208432669  0.8393751716910814  1.0000
  N   N3        1.0  0.02444945358809261  0.20858985191602455  0.6642245829300124  1.0000
  N   N4        1.0  0.9755505468148518  0.7914101480501272  0.3357754164307634  1.0000
  O   O1        1.0  0.3362403632444106  0.32092505994824094  0.9983083922834799  1.0000
  O   O2        1.0  0.6637596371596344  0.6790749400161831  0.0016916077865651816  1.0000
  O   O3        1.0  0.6114254632732262  0.16073664857273154  0.07964516585962797  1.0000
  O   O4        1.0  0.3885745371308185  0.8392633513916925  0.9203548342104173  1.0000
  O   O5        1.0  0.9358813900895696  0.23878919252711442  0.5868039927417972  1.0000
  O   O6        1.0  0.06411860879347334  0.7612108074344345  0.4131960073454703  1.0000
  O   O7        1.0  0.21514757071907945  0.17185744461803906  0.6721490892370072  1.0000
  O   O8        1.0  0.7848524296849656  0.8281425553463848  0.32785091083303797  1.0000
