data_image0
_chemical_formula_structural       H116C156N20O4
_chemical_formula_sum              "H116 C156 N20 O4"
_cell_length_a       9.496670437634252
_cell_length_b       54.122579103685304
_cell_length_c       5.41287749532278
_cell_angle_alpha    90.0
_cell_angle_beta     94.39918599010413
_cell_angle_gamma    90.0

_space_group_name_H-M_alt    "P 1"
_space_group_IT_number       1

loop_
  _space_group_symop_operation_xyz
  'x, y, z'

loop_
  _atom_site_type_symbol
  _atom_site_label
  _atom_site_symmetry_multiplicity
  _atom_site_fract_x
  _atom_site_fract_y
  _atom_site_fract_z
  _atom_site_occupancy
  H   H1        1.0  0.6134134999452411  0.10890208610917182  0.6149835123959765  1.0000
  H   H2        1.0  0.6134135000568921  0.8910979138227364  0.11498351154270356  1.0000
  H   H3        1.0  0.11341349995116203  0.6089020862598916  0.6149835119842382  1.0000
  H   H4        1.0  0.11341350006281296  0.3910979138567823  0.11498351113096522  1.0000
  H   H5        1.0  0.5810199558990092  0.13137667804740363  0.8433591464872461  1.0000
  H   H6        1.0  0.5810199549681251  0.8686233220692703  0.34335914736456813  1.0000
  H   H7        1.0  0.08101995590493011  0.6313766780133578  0.8433591460755077  1.0000
  H   H8        1.0  0.08101995497404593  0.36862332191855046  0.3433591469528298  1.0000
  H   H9        1.0  0.4782559159591387  0.13176025548114398  0.552667769685687  1.0000
  H   H10       1.0  0.4782559160707896  0.8682397444507642  0.05266776883241404  1.0000
  H   H11       1.0  0.9782559159532179  0.6317602554470981  0.5526677700974253  1.0000
  H   H12       1.0  0.9782559160648687  0.36823974448481006  0.05266776924415236  1.0000
  H   H13       1.0  0.3842973472452962  0.08061287585060625  0.12092708298697091  1.0000
  H   H14       1.0  0.3842973471336453  0.919387124081302  0.6209270838402439  1.0000
  H   H15       1.0  0.8842973472393754  0.5806128758165603  0.12092708339870925  1.0000
  H   H16       1.0  0.8842973471277245  0.41938712411534784  0.6209270842519823  1.0000
  H   H17       1.0  0.4588521259662837  0.1104758457379734  0.18287273145024213  1.0000
  H   H18       1.0  0.458852126897168  0.8895241541939347  0.68287273057292  1.0000
  H   H19       1.0  0.958852125960363  0.6104758457039274  0.18287273186198047  1.0000
  H   H20       1.0  0.9588521268912471  0.3895241542279807  0.6828727309846583  1.0000
  H   H21       1.0  0.567967755100428  0.0866333372808675  0.08719340094369686  1.0000
  H   H22       1.0  0.5679677549752863  0.9133666626510406  0.5871933999478588  1.0000
  H   H23       1.0  0.06796775510634886  0.5866333372468217  0.08719340053195854  1.0000
  H   H24       1.0  0.06796775498120709  0.4133666626850866  0.5871933995361204  1.0000
  H   H25       1.0  0.13218827560860372  0.08649699991257867  0.616047090688313  1.0000
  H   H26       1.0  0.13218827572025466  0.9135030000193295  0.11604708983504004  1.0000
  H   H27       1.0  0.6321882756026829  0.5864969998785328  0.6160470911000513  1.0000
  H   H28       1.0  0.6321882757143337  0.4135030000533754  0.11604709024677838  1.0000
  H   H29       1.0  0.4374689293663858  0.010730622405990523  0.048587720213734364  1.0000
  H   H30       1.0  0.4374689292412441  0.9892693775259177  0.5485877192178963  1.0000
  H   H31       1.0  0.9374689293604649  0.5107306223719446  0.048587720625472675  1.0000
  H   H32       1.0  0.9374689292353231  0.4892693775599636  0.5485877196296346  1.0000
  H   H33       1.0  0.3619483499981296  0.03595146872569323  0.6762397794741906  1.0000
  H   H34       1.0  0.36194835010978055  0.964048531206215  0.17623977862091775  1.0000
  H   H35       1.0  0.8619483499922088  0.5359514686916473  0.676239779885929  1.0000
  H   H36       1.0  0.8619483501038597  0.46404853124026085  0.17623977903265609  1.0000
  H   H37       1.0  0.5392459111511186  0.06176130933443249  0.4769377398066057  1.0000
  H   H38       1.0  0.5392459110259769  0.9382386907822414  0.9769377388107677  1.0000
  H   H39       1.0  0.039245911157039425  0.5617613093003866  0.47693773939486733  1.0000
  H   H40       1.0  0.039245911031897666  0.4382386906315216  0.9769377383990293  1.0000
  H   H41       1.0  0.19252705911777585  0.11022670369368597  0.3255549359197603  1.0000
  H   H42       1.0  0.1925270589926341  0.8897732962382222  0.8255549349239223  1.0000
  H   H43       1.0  0.692527059111855  0.6102267036596402  0.3255549363314987  1.0000
  H   H44       1.0  0.6925270589867133  0.38977329627226814  0.8255549353356607  1.0000
  H   H45       1.0  0.243071024723649  0.1406091698886133  0.009740303636758546  1.0000
  H   H46       1.0  0.24307102459850724  0.8593908300432949  0.5097403026409204  1.0000
  H   H47       1.0  0.7430710247042372  0.6406091698545674  0.009740302199385868  1.0000
  H   H48       1.0  0.7430710245925863  0.35939083007734074  0.5097403030526588  1.0000
  H   H49       1.0  0.2689710746065228  0.1532425303330612  0.6237817672573168  1.0000
  H   H50       1.0  0.2689710747181737  0.846757469598847  0.12378176640404387  1.0000
  H   H51       1.0  0.7689710745871111  0.6532425302990154  0.623781765819944  1.0000
  H   H52       1.0  0.7689710747122529  0.3467574696328929  0.12378176681578221  1.0000
  H   H53       1.0  0.25064921500047627  0.21144871677448843  0.9903744636091415  1.0000
  H   H54       1.0  0.2506492151121272  0.7885512833421855  0.49037446275586855  1.0000
  H   H55       1.0  0.7506492149945554  0.7114487167404425  0.9903744640208799  1.0000
  H   H56       1.0  0.7506492151062063  0.28855128319146567  0.49037446316760686  1.0000
  H   H57       1.0  0.4744295742462416  0.21203977766866192  0.7714463041904062  1.0000
  H   H58       1.0  0.4744295743578925  0.7879602222632464  0.27144630333713327  1.0000
  H   H59       1.0  0.97442957422683  0.712039777634616  0.7714463027530334  1.0000
  H   H60       1.0  0.9744295743519715  0.2879602222972922  0.2714463037488716  1.0000
  H   H61       1.0  0.6758724848175118  0.18508198492924216  0.9316105106355234  1.0000
  H   H62       1.0  0.6758724838731368  0.814918015002666  0.4316105096637346  1.0000
  H   H63       1.0  0.17587248482343265  0.6850819848951962  0.931610510223785  1.0000
  H   H64       1.0  0.17587248389254845  0.3149180150367119  0.43161051110110726  1.0000
  H   H65       1.0  0.1253616143616705  0.01114248674004777  0.508998153737142  1.0000
  H   H66       1.0  0.12536161448681227  0.9888575131918604  0.008998154732980051  1.0000
  H   H67       1.0  0.6253616143557496  0.5111424867060018  0.5089981541488803  1.0000
  H   H68       1.0  0.6253616144674006  0.4888575132259063  0.008998153295607368  1.0000
  H   H69       1.0  0.3046495288273452  0.03524387328892306  0.2904704646855586  1.0000
  H   H70       1.0  0.30464952977172016  0.9647561266429852  0.7904704656573474  1.0000
  H   H71       1.0  0.8046495288214243  0.5352438734396429  0.29047046509729685  1.0000
  H   H72       1.0  0.8046495297523085  0.46475612667703103  0.7904704642199748  1.0000
  H   H73       1.0  0.2257026527876562  0.06127487741570289  0.9286403431995722  1.0000
  H   H74       1.0  0.22570265289930713  0.9387251225162053  0.4286403423462993  1.0000
  H   H75       1.0  0.7257026527817354  0.5612748773816569  0.9286403436113105  1.0000
  H   H76       1.0  0.7257026528933862  0.4387251225502512  0.42864034275803753  1.0000
  H   H77       1.0  0.6814481228163805  0.011529307736879654  0.22318484092821558  1.0000
  H   H78       1.0  0.6814481227047295  0.9884706921950286  0.7231848417814886  1.0000
  H   H79       1.0  0.18144812282230136  0.5115293077028338  0.22318484051647727  1.0000
  H   H80       1.0  0.18144812271065047  0.4884706922290744  0.7231848413697501  1.0000
  H   H81       1.0  0.8767316097049159  0.012316973082951405  0.3614392347264096  1.0000
  H   H82       1.0  0.876731610649291  0.9876830268489568  0.8614392356981984  1.0000
  H   H83       1.0  0.37673160972432773  0.5123169730489054  0.36143923616378226  1.0000
  H   H84       1.0  0.3767316106552119  0.4876830268830027  0.8614392352864602  1.0000
  H   H85       1.0  0.7499424615343852  0.11355209270841134  0.08823026749159962  1.0000
  H   H86       1.0  0.7499424614227342  0.8864479074082626  0.5882302683448726  1.0000
  H   H87       1.0  0.24994246155379687  0.6135520926743655  0.0882302689289723  1.0000
  H   H88       1.0  0.2499424614286551  0.38644790744230856  0.5882302679331343  1.0000
  H   H89       1.0  0.801299512380328  0.1441460212946278  0.7654496792040244  1.0000
  H   H90       1.0  0.801299512491979  0.8558539786372804  0.2654496783507515  1.0000
  H   H91       1.0  0.3012995123862489  0.644146021260582  0.7654496787922861  1.0000
  H   H92       1.0  0.3012995124978999  0.3558539786713263  0.2654496779390132  1.0000
  H   H93       1.0  0.8474786499382015  0.18186760355863682  0.6842198488379039  1.0000
  H   H94       1.0  0.8474786500498525  0.8181323965580372  0.18421984798463098  1.0000
  H   H95       1.0  0.3474786499441224  0.681867603524591  0.6842198484261657  1.0000
  H   H96       1.0  0.3474786500692642  0.3181323964073173  0.18421984942200365  1.0000
  H   H97       1.0  0.572380747450656  0.2380268330398689  0.5455419842609827  1.0000
  H   H98       1.0  0.572380747562307  0.7619731668920393  0.045541983407709666  1.0000
  H   H99       1.0  0.07238074745657687  0.7380268330058231  0.5455419838492442  1.0000
  H   H100      1.0  0.07238074756822781  0.2619731669260852  0.04554198299597135  1.0000
  H   H101      1.0  0.5705904569686598  0.26349366320255324  0.1601934850179799  1.0000
  H   H102      1.0  0.5705904568435181  0.736506336729355  0.6601934840221417  1.0000
  H   H103      1.0  0.0705904569745807  0.7634936633532731  0.16019348460624158  1.0000
  H   H104      1.0  0.07059045684943895  0.23650633676340088  0.6601934836104035  1.0000
  H   H105      1.0  0.7656843052876641  0.25774157590080815  0.8795381374448613  1.0000
  H   H106      1.0  0.765684305399315  0.7422584242158657  0.37953813659158836  1.0000
  H   H107      1.0  0.265684305293585  0.7577415758667623  0.8795381370331229  1.0000
  H   H108      1.0  0.2656843054187268  0.24225842424991167  0.379538138028961  1.0000
  H   H109      1.0  0.9543011490731305  0.22591058117493612  0.998422589955391  1.0000
  H   H110      1.0  0.954301149198272  0.774089418756972  0.4984225909512291  1.0000
  H   H111      1.0  0.45430114909254216  0.7259105811408902  0.9984225913927637  1.0000
  H   H112      1.0  0.4543011492041931  0.274089418791018  0.49842259053949073  1.0000
  H   H113      1.0  0.6436712259707591  0.15827075745207278  0.30075869724095455  1.0000
  H   H114      1.0  0.6436712258591081  0.8417292426646011  0.8007586980942275  1.0000
  H   H115      1.0  0.14367122597667992  0.658270757418027  0.30075869682921624  1.0000
  H   H116      1.0  0.143671225865029  0.3417292425138813  0.8007586976824891  1.0000
  C   C1        1.0  0.5300415341235816  0.11982899794142282  0.6961081055791505  1.0000
  C   C2        1.0  0.5300415342352326  0.8801710019904854  0.19610810472587753  1.0000
  C   C3        1.0  0.03004153412950249  0.6198289980921428  0.6961081051674122  1.0000
  C   C4        1.0  0.030041534254644255  0.3801710020245313  0.19610810616325025  1.0000
  C   C5        1.0  0.42711536408830914  0.1023292949397322  0.7993130291685407  1.0000
  C   C6        1.0  0.42711536419996005  0.8976707051769418  0.2993130283152679  1.0000
  C   C7        1.0  0.9271153640823883  0.6023292949056863  0.7993130295802792  1.0000
  C   C8        1.0  0.9271153641940391  0.3976707052109877  0.2993130287270062  1.0000
  C   C9        1.0  0.460049041611952  0.09415242925208307  0.06181119867783155  1.0000
  C   C10       1.0  0.46004904255632695  0.9058475706798251  0.5618111996496203  1.0000
  C   C11       1.0  0.9600490416060311  0.5941524292180371  0.06181119908956987  1.0000
  C   C12       1.0  0.960049042550406  0.40584757071387106  0.5618112000613587  1.0000
  C   C13       1.0  0.5135137796402467  0.02239295484566949  0.9629021557207079  1.0000
  C   C14       1.0  0.5135137797518976  0.9776070452710044  0.462902154867435  1.0000
  C   C15       1.0  0.013513779646167573  0.5223929548116236  0.9629021553089696  1.0000
  C   C16       1.0  0.013513779771309332  0.4776070453050504  0.46290215630480774  1.0000
  C   C17       1.0  0.4715636378583155  0.03642496519286833  0.7519499623445717  1.0000
  C   C18       1.0  0.4715636379699665  0.9635750349238056  0.2519499614912988  1.0000
  C   C19       1.0  0.9715636378523946  0.5364249651588224  0.7519499627563101  1.0000
  C   C20       1.0  0.9715636379640454  0.4635750347730858  0.2519499619030371  1.0000
  C   C21       1.0  0.5695209993056033  0.05094023928013936  0.6422503137071095  1.0000
  C   C22       1.0  0.5695209994307451  0.9490597606517689  0.14225031470294752  1.0000
  C   C23       1.0  0.06952099932501501  0.5509402392460935  0.6422503151444822  1.0000
  C   C24       1.0  0.06952099943666595  0.4490597606858147  0.1422503142912092  1.0000
  C   C25       1.0  0.7107897171342822  0.05197636691723088  0.7424772665490494  1.0000
  C   C26       1.0  0.710789717259424  0.9480236330146774  0.2424772675448875  1.0000
  C   C27       1.0  0.2107897171536939  0.551976366883185  0.7424772679864222  1.0000
  C   C28       1.0  0.21078971726534484  0.44802363304872317  0.24247726713314915  1.0000
  C   C29       1.0  0.8146665885586737  0.06718876114594452  0.6380550393857582  1.0000
  C   C30       1.0  0.8146665886703246  0.9328112387859636  0.13805503853248532  1.0000
  C   C31       1.0  0.31466658856459456  0.5671887611118986  0.6380550389740199  1.0000
  C   C32       1.0  0.31466658867624553  0.43281123882000955  0.138055038120747  1.0000
  C   C33       1.0  0.9294192502868213  0.09239292976818808  0.4180425328353445  1.0000
  C   C34       1.0  0.9294192501616794  0.9076070701637201  0.9180425318395065  1.0000
  C   C35       1.0  0.429419250292742  0.5923929297341423  0.4180425324236062  1.0000
  C   C36       1.0  0.42941925018109117  0.40760707019776604  0.9180425332768792  1.0000
  C   C37       1.0  0.9656928118844761  0.11009804038688643  0.23189835182840704  1.0000
  C   C38       1.0  0.9656928117728251  0.8899019595450217  0.73189835268168  1.0000
  C   C39       1.0  0.465692811890397  0.6100980403528404  0.2318983514166687  1.0000
  C   C40       1.0  0.465692811778746  0.38990195957906765  0.7318983522699417  1.0000
  C   C41       1.0  0.10549597457243964  0.11751613273667733  0.20382163278780116  1.0000
  C   C42       1.0  0.10549597446078872  0.8824838671952309  0.7038216336410741  1.0000
  C   C43       1.0  0.6054959745665188  0.6175161328873972  0.20382163319953953  1.0000
  C   C44       1.0  0.6054959744413769  0.3824838672292768  0.7038216322037014  1.0000
  C   C45       1.0  0.1342860801702635  0.13469875605953144  0.0235902812972021  1.0000
  C   C46       1.0  0.13428608111463852  0.8653012440571426  0.523590282268991  1.0000
  C   C47       1.0  0.6342860801643426  0.6346987560254855  0.023590281708940432  1.0000
  C   C48       1.0  0.6342860810952268  0.36530124409118847  0.5235902808316182  1.0000
  C   C49       1.0  0.025778345285073133  0.14523845944113095  0.8672801774021759  1.0000
  C   C50       1.0  0.025778345396724068  0.8547615404907772  0.3672801765489028  1.0000
  C   C51       1.0  0.5257783452791522  0.645238459407085  0.8672801778139142  1.0000
  C   C52       1.0  0.5257783453908031  0.3547615405248231  0.36728017696064114  1.0000
  C   C53       1.0  0.053570114853933995  0.16417272508351274  0.6821579786419404  1.0000
  C   C54       1.0  0.05357011497907577  0.8358272748483955  0.18215797963777858  1.0000
  C   C55       1.0  0.5535701148480131  0.6641727252342325  0.6821579790536788  1.0000
  C   C56       1.0  0.5535701149731549  0.33582727488244135  0.1821579800495169  1.0000
  C   C57       1.0  0.18247557777548723  0.16587063714760622  0.5734899391953983  1.0000
  C   C58       1.0  0.1824755768311122  0.8341293629690677  0.07348993822360946  1.0000
  C   C59       1.0  0.6824755777560755  0.6658706371135603  0.5734899377580255  1.0000
  C   C60       1.0  0.6824755768251913  0.33412936300311363  0.07348993863534778  1.0000
  C   C61       1.0  0.1987083799221366  0.18333296055590895  0.3867881875496513  1.0000
  C   C62       1.0  0.19870837981048567  0.8166670393759992  0.8867881884029243  1.0000
  C   C63       1.0  0.6987083799162157  0.6833329605218631  0.38678818796138964  1.0000
  C   C64       1.0  0.6987083798045648  0.31666703941004515  0.8867881888146625  1.0000
  C   C65       1.0  0.33142351503744594  0.1845129985559024  0.2582337527717451  1.0000
  C   C66       1.0  0.3314235149123042  0.8154870015607716  0.758233751775907  1.0000
  C   C67       1.0  0.831423515031525  0.6845129985218565  0.2582337531834834  1.0000
  C   C68       1.0  0.8314235149063833  0.31548700159481746  0.7582337521876454  1.0000
  C   C69       1.0  0.3410118208595752  0.20011450617035575  0.05311239028324055  1.0000
  C   C70       1.0  0.3410118207479243  0.7998854937615524  0.5531123911365134  1.0000
  C   C71       1.0  0.8410118208536543  0.7001145061363099  0.053112390694978875  1.0000
  C   C72       1.0  0.8410118207285127  0.29988549379559837  0.5531123896991408  1.0000
  C   C73       1.0  0.465158124298634  0.20031163923712184  0.9326229993455242  1.0000
  C   C74       1.0  0.4651581244102849  0.7996883608795521  0.4326229984922513  1.0000
  C   C75       1.0  0.9651581242792224  0.700311639203076  0.9326229979081516  1.0000
  C   C76       1.0  0.9651581244043641  0.29968836072883226  0.4326229989039896  1.0000
  C   C77       1.0  0.576806464138995  0.1851845116397555  0.02012832303080961  1.0000
  C   C78       1.0  0.5768064640138532  0.8148154884769184  0.5201283220349715  1.0000
  C   C79       1.0  0.07680646414491578  0.6851845116057097  0.02012832261907128  1.0000
  C   C80       1.0  0.07680646401977402  0.31481548851096436  0.5201283216232332  1.0000
  C   C81       1.0  0.09281165850148906  0.022438204537028585  0.3479864145542243  1.0000
  C   C82       1.0  0.09281165838983814  0.9775617953948795  0.8479864154074973  1.0000
  C   C83       1.0  0.5928116584955682  0.5224382045029827  0.3479864149659626  1.0000
  C   C84       1.0  0.5928116583839173  0.47756179542892546  0.8479864158192356  1.0000
  C   C85       1.0  0.19301614375594495  0.03604537186342551  0.22680710756249978  1.0000
  C   C86       1.0  0.19301614470032  0.9639546280684826  0.7268071085342886  1.0000
  C   C87       1.0  0.6930161437500241  0.5360453720141454  0.22680710797423811  1.0000
  C   C88       1.0  0.6930161446809082  0.4639546281025286  0.726807107096916  1.0000
  C   C89       1.0  0.14971983943573358  0.0504889076842595  0.023992319341191403  1.0000
  C   C90       1.0  0.14971983932408262  0.9495110924324145  0.5239923201944643  1.0000
  C   C91       1.0  0.6497198394298127  0.5504889076502135  0.023992319752929734  1.0000
  C   C92       1.0  0.6497198393181618  0.4495110922816946  0.5239923206062027  1.0000
  C   C93       1.0  0.0062576328609615425  0.05146503078990069  0.9372828446274823  1.0000
  C   C94       1.0  0.006257632972612476  0.9485349693267733  0.43728284377420934  1.0000
  C   C95       1.0  0.5062576328415498  0.5514650307558547  0.9372828431901097  1.0000
  C   C96       1.0  0.5062576329666916  0.4485349693608192  0.4372828441859477  1.0000
  C   C97       1.0  0.9557740054331739  0.06637920364285398  0.73341947941143  1.0000
  C   C98       1.0  0.9557740055448247  0.9336207962890543  0.23341947855815715  1.0000
  C   C99       1.0  0.45577400543909474  0.5663792037935739  0.7334194789996917  1.0000
  C   C100      1.0  0.4557740055642366  0.43362079632310013  0.23341947999552984  1.0000
  C   C101      1.0  0.6526263651488081  0.022867792527568688  0.061423518984394104  1.0000
  C   C102      1.0  0.6526263650236662  0.9771322074043395  0.561423517988556  1.0000
  C   C103      1.0  0.152626364098703  0.5228677924935228  0.0614235184541399  1.0000
  C   C104      1.0  0.15262636504307803  0.4771322074383854  0.5614235194259287  1.0000
  C   C105      1.0  0.7554438789939505  0.037412303950277274  0.955567520755203  1.0000
  C   C106      1.0  0.7554438791056014  0.9625876959816309  0.45556751990192995  1.0000
  C   C107      1.0  0.25544387899987137  0.5374123039162314  0.9555675203434646  1.0000
  C   C108      1.0  0.2554438791250131  0.46258769601567684  0.45556752133930256  1.0000
  C   C109      1.0  0.9032903047480269  0.03726763881920508  0.054495615445363514  1.0000
  C   C110      1.0  0.903290304636376  0.9627323612974689  0.5544956162986364  1.0000
  C   C111      1.0  0.4032903047539477  0.5372676387851592  0.05449561503362521  1.0000
  C   C112      1.0  0.4032903046422968  0.462732361146749  0.5544956158868982  1.0000
  C   C113      1.0  0.9511670211734964  0.023127133457591816  0.26315083683285684  1.0000
  C   C114      1.0  0.9511670210483546  0.9768728664743164  0.7631508358370187  1.0000
  C   C115      1.0  0.4511670211794172  0.5231271336083116  0.2631508364211185  1.0000
  C   C116      1.0  0.45116702106776635  0.4768728665083623  0.7631508372743914  1.0000
  C   C117      1.0  0.857118401510501  0.11999958718814575  0.07031405333626048  1.0000
  C   C118      1.0  0.8571184013853592  0.8800004127437624  0.5703140523404224  1.0000
  C   C119      1.0  0.3571184015164219  0.6199995871540999  0.07031405292452216  1.0000
  C   C120      1.0  0.35711840140477097  0.3800004127778084  0.5703140537777951  1.0000
  C   C121      1.0  0.8866378346599039  0.13718255805541316  0.8922998465039915  1.0000
  C   C122      1.0  0.8866378347715548  0.862817441876495  0.3922998456507185  1.0000
  C   C123      1.0  0.3866378346658248  0.6371825582061329  0.8922998460922532  1.0000
  C   C124      1.0  0.3866378347774757  0.36281744191054094  0.39229984523898026  1.0000
  C   C125      1.0  0.948535842035006  0.18121242598603687  0.6030173977111982  1.0000
  C   C126      1.0  0.9485358421601476  0.8187875741306371  0.1030173987070363  1.0000
  C   C127      1.0  0.44853584205441765  0.681212425951991  0.6030173991485709  1.0000
  C   C128      1.0  0.4485358421660685  0.3187875739799172  0.10301739829529799  1.0000
  C   C129      1.0  0.9733489910406825  0.19824793215128575  0.4175370317372219  1.0000
  C   C130      1.0  0.9733489909155407  0.8017520677806225  0.9175370307413838  1.0000
  C   C131      1.0  0.4733489910466033  0.6982479323020057  0.4175370313254835  1.0000
  C   C132      1.0  0.4733489909214616  0.30175206781466835  0.9175370303296454  1.0000
  C   C133      1.0  0.8622780487023316  0.21643777595222471  0.3362098464854768  1.0000
  C   C134      1.0  0.8622780485906807  0.7835622239796836  0.8362098473387497  1.0000
  C   C135      1.0  0.3622780487217433  0.7164377759181788  0.33620984792284947  1.0000
  C   C136      1.0  0.36227804859660157  0.2835622240137294  0.8362098469270114  1.0000
  C   C137      1.0  0.6559689104289883  0.2359166385167808  0.41947545873159353  1.0000
  C   C138      1.0  0.6559689103038466  0.7640833614151274  0.9194754577357555  1.0000
  C   C139      1.0  0.15596891043490915  0.7359166386675007  0.4194754583198553  1.0000
  C   C140      1.0  0.15596891030976742  0.2640833614491733  0.9194754573240171  1.0000
  C   C141      1.0  0.6548935164424311  0.25024797735623355  0.20504060790253772  1.0000
  C   C142      1.0  0.6548935163307803  0.7497520227604404  0.7050406087558106  1.0000
  C   C143      1.0  0.15489351646184282  0.7502479773221877  0.2050406093399104  1.0000
  C   C144      1.0  0.1548935163367011  0.24975202260972051  0.7050406083440723  1.0000
  C   C145      1.0  0.7638214406251836  0.2470074479338643  0.049481743271550624  1.0000
  C   C146      1.0  0.7638214415695587  0.7529925519980439  0.5494817442433395  1.0000
  C   C147      1.0  0.2638214406311046  0.7470074478998184  0.0494817428598123  1.0000
  C   C148      1.0  0.2638214415754796  0.25299255203208976  0.5494817438316011  1.0000
  C   C149      1.0  0.8685604039045502  0.2296993488832739  0.11488910558793526  1.0000
  C   C150      1.0  0.8685604037794082  0.7703006510486343  0.6148891045920971  1.0000
  C   C151      1.0  0.3685604039104709  0.7296993490339938  0.11488910517619692  1.0000
  C   C152      1.0  0.36856040379882005  0.2703006510826802  0.6148891060294699  1.0000
  C   C153      1.0  0.5582861111043395  0.17033193729254995  0.22589796587068972  1.0000
  C   C154      1.0  0.5582861109791978  0.8296680626393582  0.7258979648748517  1.0000
  C   C155      1.0  0.05828611111026039  0.6703319374432698  0.22589796545895138  1.0000
  C   C156      1.0  0.05828611099860945  0.3296680626734041  0.7258979663122244  1.0000
  N   N1        1.0  0.7992341296410239  0.08354843440363874  0.44328564084723215  1.0000
  N   N2        1.0  0.7992341295293729  0.9164515655282695  0.9432856417005051  1.0000
  N   N3        1.0  0.2992341296604356  0.5835484343695928  0.4432856422846048  1.0000
  N   N4        1.0  0.2992341295352938  0.4164515655623154  0.9432856412887668  1.0000
  N   N5        1.0  0.02671666225013088  0.08234251829467126  0.5909397751459519  1.0000
  N   N6        1.0  0.02671666236178182  0.9176574818220027  0.09093977429267897  1.0000
  N   N7        1.0  0.52671666224421  0.5823425182606254  0.5909397755576902  1.0000
  N   N8        1.0  0.5267166623558609  0.41765748185604856  0.09093977470441729  1.0000
  N   N9        1.0  0.7564673432445376  0.21944163465024694  0.4862132485892383  1.0000
  N   N10       1.0  0.7564673431328865  0.7805583652816613  0.9862132494425112  1.0000
  N   N11       1.0  0.25646734326394927  0.719441634616201  0.48621325002661103  1.0000
  N   N12       1.0  0.2564673431388075  0.28055836531570716  0.9862132490307729  1.0000
  N   N13       1.0  0.4389424132764333  0.16969729717434354  0.34240095681235005  1.0000
  N   N14       1.0  0.43894241316478233  0.8303027029423304  0.8424009576656231  1.0000
  N   N15       1.0  0.9389424132705123  0.6696972971402977  0.34240095722408836  1.0000
  N   N16       1.0  0.9389424131588614  0.3303027029763763  0.8424009580773614  1.0000
  N   N17       1.0  0.09574078455064511  0.19922993579708725  0.30828519439974  1.0000
  N   N18       1.0  0.09574078443899418  0.800770064134821  0.808285195253013  1.0000
  N   N19       1.0  0.5957407845447242  0.6992299357630414  0.30828519481147837  1.0000
  N   N20       1.0  0.5957407844330732  0.3007700641688668  0.8082851956647512  1.0000
  O   O1        1.0  0.3210046582329128  0.09525402069482976  0.6719008664447403  1.0000
  O   O2        1.0  0.3210046583580546  0.9047459792370784  0.17190086744057848  1.0000
  O   O3        1.0  0.8210046582269919  0.5952540206607839  0.6719008668564788  1.0000
  O   O4        1.0  0.8210046583521338  0.4047459792711244  0.1719008678523168  1.0000
