data_image0
_chemical_formula_structural       H30B2C20N12Br16
_chemical_formula_sum              "H30 B2 C20 N12 Br16"
_cell_length_a       9.426286786552296
_cell_length_b       11.037499709062677
_cell_length_c       11.681749620759678
_cell_angle_alpha    93.68909162155191
_cell_angle_beta     91.70525313125104
_cell_angle_gamma    111.45661301726633

_space_group_name_H-M_alt    "P 1"
_space_group_IT_number       1

loop_
  _space_group_symop_operation_xyz
  'x, y, z'

loop_
  _atom_site_type_symbol
  _atom_site_label
  _atom_site_symmetry_multiplicity
  _atom_site_fract_x
  _atom_site_fract_y
  _atom_site_fract_z
  _atom_site_occupancy
  H   H1        1.0  0.022476984349563803  0.4196906863892383  0.7034500743538374  1.0000
  H   H2        1.0  0.977523014955536  0.5803093132330716  0.29654992530338536  1.0000
  H   H3        1.0  0.90059178105548  0.5098511296270071  0.68763377604678  1.0000
  H   H4        1.0  0.0994082186756246  0.4901488709689675  0.31236622361299154  1.0000
  H   H5        1.0  0.9247052482174369  0.45191287809983727  0.8245996955816678  1.0000
  H   H6        1.0  0.07529475257104394  0.5480871224880417  0.1754003040785914  1.0000
  H   H7        1.0  0.16741199239622076  0.7888642043382893  0.8883037719541871  1.0000
  H   H8        1.0  0.8325880079662554  0.21113579527592496  0.11169622770352335  1.0000
  H   H9        1.0  0.016562444151312895  0.6498522302713787  0.9329308339165415  1.0000
  H   H10       1.0  0.9834375562111631  0.35014776934283565  0.06706916574116906  1.0000
  H   H11       1.0  0.9827225764041718  0.7339294210197609  0.8140953361365377  1.0000
  H   H12       1.0  0.017277424384309025  0.26607057956811814  0.18590466352372134  1.0000
  H   H13       1.0  0.18565200880477292  0.5874719464583014  0.8328229939692464  1.0000
  H   H14       1.0  0.8143479915577031  0.41252805315591295  0.16717700568846405  1.0000
  H   H15       1.0  0.6956273657131657  0.5993169938838618  0.7183311198052846  1.0000
  H   H16       1.0  0.3043726346493103  0.40068300573035237  0.2816688798524259  1.0000
  H   H17       1.0  0.5390846145941566  0.4918854107745289  0.6266938784846399  1.0000
  H   H18       1.0  0.46091538471094334  0.508114588847781  0.37330612117258305  1.0000
  H   H19       1.0  0.6534653091977928  0.4264159086601232  0.7090131551577727  1.0000
  H   H20       1.0  0.34653469116468344  0.5735840909540911  0.2909868444999378  1.0000
  H   H21       1.0  0.30673975881089804  0.35389792341428367  0.8704064466258998  1.0000
  H   H22       1.0  0.6932602409838581  0.6461020772577863  0.12959355389309718  1.0000
  H   H23       1.0  0.4368421322555636  0.2854453287481014  0.8101438724427301  1.0000
  H   H24       1.0  0.563157867475541  0.7145546718478731  0.18985612721704148  1.0000
  H   H25       1.0  0.3158974304835087  0.3352091265519843  0.717087304348441  1.0000
  H   H26       1.0  0.6841025703049721  0.6647908740358947  0.28291269531181806  1.0000
  H   H27       1.0  0.5685751161106127  0.5008039001603146  0.8804924283062138  1.0000
  H   H28       1.0  0.4314248843155149  0.49919609952999505  0.11950757221072221  1.0000
  H   H29       1.0  0.4580110028229653  0.5617922982914112  0.8043368199908248  1.0000
  H   H30       1.0  0.5419889969717908  0.43820770238065887  0.19566318052817214  1.0000
  B   B1        1.0  0.21221116674146442  0.6817399739301064  0.6772292894069021  1.0000
  B   B2        1.0  0.7877888325636353  0.31826002569220346  0.3227707102503207  1.0000
  C   C1        1.0  0.9800465489648923  0.48961737171610914  0.7462602559510634  1.0000
  C   C2        1.0  0.019953450340207478  0.5103826279062008  0.25373974370615954  1.0000
  C   C3        1.0  0.06587455695726678  0.70374062924953  0.8591127410598479  1.0000
  C   C4        1.0  0.934125443468861  0.2962593704407798  0.14088725945708805  1.0000
  C   C5        1.0  0.9323982232220023  0.7774202925337229  0.5290584534522462  1.0000
  C   C6        1.0  0.06760177720412539  0.2225797071565868  0.47094154706468977  1.0000
  C   C7        1.0  0.04417631552613895  0.8176527770318347  0.4471032538386358  1.0000
  C   C8        1.0  0.9558236838426122  0.18234722266657058  0.5528967466778125  1.0000
  C   C9        1.0  0.16573218077662683  0.7894525870698768  0.4928635770441104  1.0000
  C   C10       1.0  0.834267818528473  0.21054741255243317  0.5071364226131124  1.0000
  C   C11       1.0  0.5740416738757617  0.8548340503825365  0.8345856813694301  1.0000
  C   C12       1.0  0.4259583258553429  0.14516595021343812  0.1654143182903414  1.0000
  C   C13       1.0  0.5345939823327558  0.9658421399528265  0.8269008437583143  1.0000
  C   C14       1.0  0.46540601697234396  0.03415785966948333  0.17309915589890854  1.0000
  C   C15       1.0  0.3971956918672985  0.9179814381959592  0.7609047192305278  1.0000
  C   C16       1.0  0.602804308984834  0.0820185624680151  0.23909528128895688  1.0000
  C   C17       1.0  0.6051094563373658  0.5024938256642607  0.7076618176294002  1.0000
  C   C18       1.0  0.39489054402511026  0.4975061739499535  0.29233818202831025  1.0000
  C   C19       1.0  0.3809704310890741  0.35560076250254535  0.7997747349841382  1.0000
  C   C20       1.0  0.6190295682160257  0.6443992371197647  0.20022526467308477  1.0000
  N   N1        1.0  0.11212813013779453  0.6141335021358424  0.7791711910114372  1.0000
  N   N2        1.0  0.8878718691673052  0.38586649748646756  0.2208288086457856  1.0000
  N   N3        1.0  0.12437595766935791  0.7349185739248005  0.5945850380536577  1.0000
  N   N4        1.0  0.8756240431191229  0.26508142666307843  0.4054149616066016  1.0000
  N   N5        1.0  0.9792762076690652  0.7273803254149214  0.6163096733448411  1.0000
  N   N6        1.0  0.02072379311941564  0.2726196751729575  0.3836903263154182  1.0000
  N   N7        1.0  0.3607491214270468  0.7874225388215078  0.7317583828681496  1.0000
  N   N8        1.0  0.6392508789354293  0.21257746079270645  0.26824161678956077  1.0000
  N   N9        1.0  0.4709294515555815  0.7484348044507126  0.7789028503644078  1.0000
  N   N10       1.0  0.5290705482391745  0.2515651962213573  0.22109715015458914  1.0000
  N   N11       1.0  0.5022200802771883  0.4878292312348937  0.8036578561371132  1.0000
  N   N12       1.0  0.49777992051129244  0.5121707693529852  0.19634214352314597  1.0000
  Br  Br1       1.0  0.26770539578267255  0.5416237535687056  0.5863392366684422  1.0000
  Br  Br2       1.0  0.7322946039484319  0.45837624702726887  0.41366076299132937  1.0000
  Br  Br3       1.0  0.7373856054012958  0.7861300238271273  0.525336553922355  1.0000
  Br  Br4       1.0  0.2626143943934603  0.21386997684494277  0.47466344659664195  1.0000
  Br  Br5       1.0  0.03358211900157318  0.8867846798274674  0.30666469396771123  1.0000
  Br  Br6       1.0  0.9664178807931829  0.11321532084460267  0.6933353065512857  1.0000
  Br  Br7       1.0  0.35746963523845815  0.8291811120784883  0.43304469597253387  1.0000
  Br  Br8       1.0  0.6425303641302931  0.17081888761991693  0.5669553045439144  1.0000
  Br  Br9       1.0  0.7468925164174159  0.8460853823104469  0.9117725778418347  1.0000
  Br  Br10      1.0  0.25310748288768387  0.15391461731186293  0.0882274218153881  1.0000
  Br  Br11      1.0  0.6318972912728057  0.1374692880547677  0.8925366789525943  1.0000
  Br  Br12      1.0  0.36810270957932684  0.8625307126092067  0.10746332156689037  1.0000
  Br  Br13      1.0  0.27780349620521777  0.013564589405044649  0.7212233055369542  1.0000
  Br  Br14      1.0  0.7221965046469146  0.9864354112589298  0.2787766949825304  1.0000
  Br  Br15      1.0  0.2672699302636971  0.5450281740347515  0.0030006353223500748  1.0000
  Br  Br16      1.0  0.7327300690414027  0.4549718255875584  0.9969993643348728  1.0000
