data_image0
_chemical_formula_structural       H16C10N4S2I10
_chemical_formula_sum              "H16 C10 N4 S2 I10"
_cell_length_a       7.529191067026692
_cell_length_b       9.442359473866755
_cell_length_c       11.746444977539081
_cell_angle_alpha    102.06509924814357
_cell_angle_beta     105.18933118936316
_cell_angle_gamma    97.40218765061135

_space_group_name_H-M_alt    "P 1"
_space_group_IT_number       1

loop_
  _space_group_symop_operation_xyz
  'x, y, z'

loop_
  _atom_site_type_symbol
  _atom_site_label
  _atom_site_symmetry_multiplicity
  _atom_site_fract_x
  _atom_site_fract_y
  _atom_site_fract_z
  _atom_site_occupancy
  H   H1        1.0  0.6199262682562688  0.9629928779898917  0.35414921045306835  1.0000
  H   H2        1.0  0.3800737317648891  0.03700712180906037  0.6458507899481616  1.0000
  H   H3        1.0  0.35805571998927904  0.8273503671431697  0.44844674653161476  1.0000
  H   H4        1.0  0.6419442796183585  0.17264963237758962  0.5515532529576501  1.0000
  H   H5        1.0  0.7872779615037078  0.8763768369381684  0.20778677705119927  1.0000
  H   H6        1.0  0.2127220385174501  0.12362316286078372  0.7922132233500306  1.0000
  H   H7        1.0  0.8360448383711535  0.6961375022560241  0.20909816326702452  1.0000
  H   H8        1.0  0.1639551618190034  0.3038624986113705  0.7909018371358085  1.0000
  H   H9        1.0  0.6527973229395384  0.7196568177855737  0.08772715776399936  1.0000
  H   H10       1.0  0.347202676837098  0.28034318280362813  0.9122728417268683  1.0000
  H   H11       1.0  0.19458340109662303  0.5713627931025241  0.41452418680571784  1.0000
  H   H12       1.0  0.805416598924535  0.4286372066964279  0.5854758135955122  1.0000
  H   H13       1.0  0.14995152231543404  0.4654013535105999  0.2605971032924919  1.0000
  H   H14       1.0  0.8500484772922036  0.5345986460101594  0.7394028961967728  1.0000
  H   H15       1.0  0.33298730058692627  0.4370709797705944  0.3798075784468171  1.0000
  H   H16       1.0  0.6670126994342317  0.5629290200283577  0.6201924219544128  1.0000
  C   C1        1.0  0.49170169432927247  0.6057934539401691  0.2483867764527938  1.0000
  C   C2        1.0  0.5082983071909173  0.3942065469315538  0.7516132239529337  1.0000
  C   C3        1.0  0.5541464716552383  0.8483263350670199  0.3360206178245017  1.0000
  C   C4        1.0  0.4458535292824322  0.15167366445806763  0.6639793816676577  1.0000
  C   C5        1.0  0.426226941445205  0.7817785921988721  0.38260412765122526  1.0000
  C   C6        1.0  0.5737730585759531  0.21822140760008005  0.6173958727500047  1.0000
  C   C7        1.0  0.7253174647968127  0.7590603243693257  0.18552393436430537  1.0000
  C   C8        1.0  0.27468253497982376  0.24093967621987608  0.8144760651265623  1.0000
  C   C9        1.0  0.25852860090703356  0.5198654250085387  0.34703674484089614  1.0000
  C   C10       1.0  0.7414713991141245  0.4801345747904134  0.6529632555603339  1.0000
  N   N1        1.0  0.5934971064302511  0.7388908666740273  0.2545385027942077  1.0000
  N   N2        1.0  0.4065028931773865  0.2611091328467321  0.7454614966950572  1.0000
  N   N3        1.0  0.3899658862716546  0.6332153415799365  0.3281865887660628  1.0000
  N   N4        1.0  0.6100341133359831  0.3667846579408227  0.6718134107232021  1.0000
  S   S1        1.0  0.4852501674493116  0.43890315694018844  0.15541989348001725  1.0000
  S   S2        1.0  0.5147498325718465  0.5610968428587637  0.8445801069212128  1.0000
  I   I1        1.0  0.7236186699144849  0.3380707376334491  0.3004006960389689  1.0000
  I   I2        1.0  0.2763813296931528  0.6619292618873103  0.6995993034502959  1.0000
  I   I3        1.0  0.006310585264522962  0.20401402633602073  0.4668940222612611  1.0000
  I   I4        1.0  0.9936894149256339  0.7959859745313738  0.5331059781415718  1.0000
  I   I5        1.0  0.1693639893694933  0.08968424909858742  0.26282955860081325  1.0000
  I   I6        1.0  0.8306360106516647  0.9103157507003646  0.7371704418004167  1.0000
  I   I7        1.0  0.30962690971674445  0.9905345559379175  0.06355796042461279  1.0000
  I   I8        1.0  0.6903730903044136  0.00946544386103467  0.9364420399766171  1.0000
  I   I9        1.0  0.08987655563858345  0.6460579033893006  0.015546634345617184  1.0000
  I   I10       1.0  0.9101234439690543  0.35394209613145866  0.9844533651436477  1.0000
