data_image0
_chemical_formula_structural       H56C52N16O20S4
_chemical_formula_sum              "H56 C52 N16 O20 S4"
_cell_length_a       12.652353704153217
_cell_length_b       5.181596368852922
_cell_length_c       23.426062733842837
_cell_angle_alpha    90.0
_cell_angle_beta     102.73978849282908
_cell_angle_gamma    90.0

_space_group_name_H-M_alt    "P 1"
_space_group_IT_number       1

loop_
  _space_group_symop_operation_xyz
  'x, y, z'

loop_
  _atom_site_type_symbol
  _atom_site_label
  _atom_site_symmetry_multiplicity
  _atom_site_fract_x
  _atom_site_fract_y
  _atom_site_fract_z
  _atom_site_occupancy
  H   H1        1.0  0.9067409218811405  0.8142711356990612  0.5124429453423291  1.0000
  H   H2        1.0  0.09325907878429597  0.8142711356990612  0.9875570547558227  1.0000
  H   H3        1.0  0.09325907821632268  0.1857288645223143  0.4875570546461291  1.0000
  H   H4        1.0  0.9067409213131674  0.1857288645223143  0.012442945232635652  1.0000
  H   H5        1.0  0.04845151251829041  0.7462501813617736  0.5398591692002902  1.0000
  H   H6        1.0  0.9515484881471462  0.7462501813617736  0.9601408308978615  1.0000
  H   H7        1.0  0.951548487579173  0.2537498188596019  0.460140830788168  1.0000
  H   H8        1.0  0.04845151195031714  0.2537498188596019  0.03985916909059674  1.0000
  H   H9        1.0  0.9472871945511354  0.573367494978714  0.5688251231191339  1.0000
  H   H10       1.0  0.05271280530398832  0.573367494978714  0.9311748768814465  1.0000
  H   H11       1.0  0.05271280473601505  0.42663250524266155  0.4311748767717531  1.0000
  H   H12       1.0  0.9472871947934751  0.42663250524266155  0.0688251231070116  1.0000
  H   H13       1.0  0.017909911739093332  0.6828086516478772  0.6763191362635197  1.0000
  H   H14       1.0  0.9820900881180415  0.6828086516478772  0.8236808633104267  1.0000
  H   H15       1.0  0.9820900883583701  0.31719134857349823  0.32368086372493854  1.0000
  H   H16       1.0  0.017909911979421777  0.31719134857349823  0.17631913667803145  1.0000
  H   H17       1.0  0.07136150706597949  0.9963068854671986  0.7015824741218208  1.0000
  H   H18       1.0  0.9286384927891442  0.9963068854671986  0.7984175258787596  1.0000
  H   H19       1.0  0.9286384930314839  0.003693114754176866  0.29841752586663733  1.0000
  H   H20       1.0  0.07136150730831912  0.003693114754176866  0.2015824741096986  1.0000
  H   H21       1.0  0.1353924985755847  0.8106737346911307  0.6539269663649718  1.0000
  H   H22       1.0  0.864607501279539  0.8106737346911307  0.8460730336356087  1.0000
  H   H23       1.0  0.8646075015218787  0.1893262655302447  0.3460730336234864  1.0000
  H   H24       1.0  0.1353924980056002  0.1893262655302447  0.1539269666819125  1.0000
  H   H25       1.0  0.5695327718269413  0.8935825410548157  0.5488419016451422  1.0000
  H   H26       1.0  0.4304672280281825  0.8935825410548157  0.9511580983554382  1.0000
  H   H27       1.0  0.4304672274602092  0.10641745916655972  0.4511580982457448  1.0000
  H   H28       1.0  0.5695327720692809  0.10641745916655972  0.048841901633019984  1.0000
  H   H29       1.0  0.7858617038820258  0.27231351683079186  0.585990501442289  1.0000
  H   H30       1.0  0.21413829597309791  0.27231351683079186  0.9140094985582914  1.0000
  H   H31       1.0  0.21413829621543753  0.7276864814606764  0.41400949854616914  1.0000
  H   H32       1.0  0.7858617033140525  0.7276864814606764  0.0859905013325956  1.0000
  H   H33       1.0  0.5624855417684169  0.2603402897432998  0.3065529387184255  1.0000
  H   H34       1.0  0.437514458569375  0.2603402897432998  0.19344706168454454  1.0000
  H   H35       1.0  0.4375144583290465  0.7396597104780755  0.6934470612700326  1.0000
  H   H36       1.0  0.5624855415260772  0.7396597104780755  0.8065529387305478  1.0000
  H   H37       1.0  0.6906871462192087  0.3297581629999209  0.29064298429993535  1.0000
  H   H38       1.0  0.3093128541205943  0.3297581629999209  0.20935701567640058  1.0000
  H   H39       1.0  0.30931285387825463  0.6702418372214546  0.7093570156885229  1.0000
  H   H40       1.0  0.6906871459768691  0.6702418372214546  0.7906429843120577  1.0000
  H   H41       1.0  0.5873334106786554  0.5679728659859914  0.2769339271275318  1.0000
  H   H42       1.0  0.4126665896611475  0.5679728659859914  0.22306607284880414  1.0000
  H   H43       1.0  0.4126665894188079  0.432027134235384  0.7230660728609264  1.0000
  H   H44       1.0  0.5873334104363158  0.432027134235384  0.776933927139654  1.0000
  H   H45       1.0  0.71481896759326  0.8843491221247743  0.34037351196157906  1.0000
  H   H46       1.0  0.2851810327465429  0.8843491221247743  0.15962648801475685  1.0000
  H   H47       1.0  0.28518103250420324  0.11565087809660106  0.6596264880268791  1.0000
  H   H48       1.0  0.7148189673509204  0.11565087809660106  0.8403735119737014  1.0000
  H   H49       1.0  0.8182928153432221  0.646258726389626  0.3552112760761906  1.0000
  H   H50       1.0  0.18170718499658087  0.646258726389626  0.14478872390014533  1.0000
  H   H51       1.0  0.18170718475424125  0.3537412738317494  0.6447887239122676  1.0000
  H   H52       1.0  0.8182928151008826  0.3537412738317494  0.855211276088313  1.0000
  H   H53       1.0  0.7751754481912865  0.8052613293234374  0.41424180924933957  1.0000
  H   H54       1.0  0.2248245513382035  0.8052613293234374  0.08575819062942518  1.0000
  H   H55       1.0  0.22482455190617678  0.1947386689680309  0.5857581907391186  1.0000
  H   H56       1.0  0.775175447948947  0.1947386689680309  0.9142418092614618  1.0000
  C   C1        1.0  0.9684941199126913  0.7567045753639046  0.5508673186256887  1.0000
  C   C2        1.0  0.031505879942432466  0.7567045753639046  0.9491326813748918  1.0000
  C   C3        1.0  0.03150588018477211  0.24329542485747088  0.44913268136276946  1.0000
  C   C4        1.0  0.968494119344718  0.24329542485747088  0.050867318515995304  1.0000
  C   C5        1.0  0.058021335400943334  0.8577072785358341  0.6653102378270493  1.0000
  C   C6        1.0  0.9419786652644933  0.8577072785358341  0.8346897622711024  1.0000
  C   C7        1.0  0.9419786646965199  0.14229272168554125  0.33468976216140883  1.0000
  C   C8        1.0  0.05802133483297006  0.14229272168554125  0.16531023771735584  1.0000
  C   C9        1.0  0.6743191450661689  0.5732901057010754  0.5448448001044484  1.0000
  C   C10       1.0  0.32568085478895487  0.5732901057010754  0.9551551998961323  1.0000
  C   C11       1.0  0.32568085503129457  0.4267098945203  0.4551551998840099  1.0000
  C   C12       1.0  0.6743191453085086  0.4267098945203  0.04484480009232605  1.0000
  C   C13       1.0  0.6595576853036889  0.746001808098326  0.6305987787612748  1.0000
  C   C14       1.0  0.3404423145514349  0.746001808098326  0.8694012212393059  1.0000
  C   C15       1.0  0.34044231479377457  0.25399819212304947  0.36940122122718355  1.0000
  C   C16       1.0  0.6595576855460283  0.25399819212304947  0.1305987787491524  1.0000
  C   C17       1.0  0.7324210515747661  0.5433323863130707  0.6421690091835505  1.0000
  C   C18       1.0  0.26757894909067065  0.5433323863130707  0.8578309909146012  1.0000
  C   C19       1.0  0.26757894852269737  0.45666761390830474  0.35783099080490777  1.0000
  C   C20       1.0  0.7324210510067927  0.45666761390830474  0.14216900907385693  1.0000
  C   C21       1.0  0.6289454606785152  0.9189545694108383  0.6702011663919712  1.0000
  C   C22       1.0  0.3710545399869214  0.9189545694108383  0.8297988337061803  1.0000
  C   C23       1.0  0.3710545394189481  0.08104542888062997  0.3297988335964869  1.0000
  C   C24       1.0  0.628945460110542  0.08104542888062997  0.17020116628227788  1.0000
  C   C25       1.0  0.7965771332615925  0.4617110499731222  0.6960603061152206  1.0000
  C   C26       1.0  0.2034228674038443  0.4617110499731222  0.8039396939829312  1.0000
  C   C27       1.0  0.203422866835871  0.5382889502482532  0.3039396938732376  1.0000
  C   C28       1.0  0.7965771326936191  0.5382889502482532  0.19606030600552715  1.0000
  C   C29       1.0  0.7243673833124377  0.33459426527732533  0.4635698770196853  1.0000
  C   C30       1.0  0.2756326162170524  0.33459426527732533  0.03643012285907944  1.0000
  C   C31       1.0  0.27563261678502565  0.6654057349440501  0.5364301229687729  1.0000
  C   C32       1.0  0.7243673830700981  0.6654057349440501  0.9635698770318075  1.0000
  C   C33       1.0  0.5792379412396513  0.6688893254661725  0.44359405953111336  1.0000
  C   C34       1.0  0.42076205828983876  0.6688893254661725  0.056405940347651416  1.0000
  C   C35       1.0  0.42076205885781204  0.33111067282529566  0.5564059404573448  1.0000
  C   C36       1.0  0.5792379409973117  0.33111067282529566  0.9435940595432356  1.0000
  C   C37       1.0  0.6616551690869513  0.5309667376907361  0.48392868676021467  1.0000
  C   C38       1.0  0.3383448312508405  0.5309667376907361  0.016071313642755353  1.0000
  C   C39       1.0  0.3383448310085009  0.4690332625306393  0.5160713136548777  1.0000
  C   C40       1.0  0.6616551688466229  0.4690332625306393  0.983928686345703  1.0000
  C   C41       1.0  0.6634124027952685  0.5191120705906049  0.36705812714259634  1.0000
  C   C42       1.0  0.3365875975425234  0.5191120705906049  0.13294187326037363  1.0000
  C   C43       1.0  0.3365875973021949  0.4808879296307705  0.6329418728458618  1.0000
  C   C44       1.0  0.6634124025529288  0.4808879296307705  0.8670581271547186  1.0000
  C   C45       1.0  0.6227384415142484  0.41178879405312574  0.3064734013836156  1.0000
  C   C46       1.0  0.37726155801524175  0.41178879405312574  0.1935265984951491  1.0000
  C   C47       1.0  0.37726155777290205  0.5882112042383425  0.6935265985072713  1.0000
  C   C48       1.0  0.6227384420822216  0.5882112042383425  0.806473401493309  1.0000
  C   C49       1.0  0.7487592784057212  0.7269605121392116  0.3698877979774289  1.0000
  C   C50       1.0  0.25124072193408165  0.7269605121392116  0.13011220199890708  1.0000
  C   C51       1.0  0.25124072169174205  0.2730394880821637  0.6301122020110294  1.0000
  C   C52       1.0  0.7487592781633817  0.2730394880821637  0.8698877979895512  1.0000
  N   N1        1.0  0.6246486042085088  0.7594030892975738  0.5706434379716852  1.0000
  N   N2        1.0  0.37535139645692783  0.7594030892975738  0.9293565621264664  1.0000
  N   N3        1.0  0.3753513958889546  0.24059691092380156  0.429356562016773  1.0000
  N   N4        1.0  0.6246486036405355  0.24059691092380156  0.0706434378619917  1.0000
  N   N5        1.0  0.7394073840472009  0.43936524150837825  0.588972560099615  1.0000
  N   N6        1.0  0.26059261661823574  0.43936524150837825  0.9110274399985366  1.0000
  N   N7        1.0  0.2605926160482513  0.5606347587129972  0.41102744031547733  1.0000
  N   N8        1.0  0.7394073834792275  0.5606347587129972  0.08897255998992147  1.0000
  N   N9        1.0  0.6061899518018297  0.059517511216002184  0.7045851083467989  1.0000
  N   N10       1.0  0.39381004805329395  0.059517511216002184  0.7954148916537815  1.0000
  N   N11       1.0  0.3938100474853208  0.9404824890053732  0.29541489154408823  1.0000
  N   N12       1.0  0.6061899520441694  0.9404824890053732  0.20458510833467652  1.0000
  N   N13       1.0  0.8510882176717443  0.40061582999363143  0.7410085621887815  1.0000
  N   N14       1.0  0.1489117821833795  0.40061582999363143  0.7589914378117989  1.0000
  N   N15       1.0  0.14891178242571912  0.5993841702277439  0.25899143779967665  1.0000
  N   N16       1.0  0.8510882179140838  0.5993841702277439  0.24100856217665925  1.0000
  O   O1        1.0  0.8615011548205229  0.0245384049526319  0.6180368661834076  1.0000
  O   O2        1.0  0.13849884503460097  0.0245384049526319  0.881963133817173  1.0000
  O   O3        1.0  0.1384988452769406  0.9754615952687435  0.3819631338050506  1.0000
  O   O4        1.0  0.8615011550628624  0.9754615952687435  0.11803686617128524  1.0000
  O   O5        1.0  0.5121224894503957  0.8169854632921062  0.45767764204424044  1.0000
  O   O6        1.0  0.4878775108894073  0.8169854632921062  0.04232235793209545  1.0000
  O   O7        1.0  0.4878775106470677  0.18301453692926914  0.5423223579442178  1.0000
  O   O8        1.0  0.5121224892080561  0.18301453692926914  0.9576776420563629  1.0000
  O   O9        1.0  0.7892330767418756  0.1856168006024979  0.4945989175625092  1.0000
  O   O10       1.0  0.21076692278761447  0.1856168006024979  0.0054010823162554894  1.0000
  O   O11       1.0  0.21076692335558775  0.8143831996188775  0.505401082425949  1.0000
  O   O12       1.0  0.789233076499536  0.8143831996188775  0.9945989175746315  1.0000
  O   O13       1.0  0.7084070734836326  0.3044016086396117  0.404145873479847  1.0000
  O   O14       1.0  0.29159292604585757  0.3044016086396117  0.0958541263989177  1.0000
  O   O15       1.0  0.2915929266138308  0.6955983915817638  0.5958541265086111  1.0000
  O   O16       1.0  0.7084070740516057  0.6955983915817638  0.9041458735895405  1.0000
  O   O17       1.0  0.5699090070076218  0.6225833315369085  0.3854250204422689  1.0000
  O   O18       1.0  0.43009099333218115  0.6225833315369085  0.11457497953406706  1.0000
  O   O19       1.0  0.43009099308984156  0.3774166667545597  0.6145749795461894  1.0000
  O   O20       1.0  0.5699090067652822  0.3774166667545597  0.8854250204543912  1.0000
  S   S1        1.0  0.9727038043972407  0.012321401640578501  0.6034195051489548  1.0000
  S   S2        1.0  0.027296195457883  0.012321401640578501  0.8965804948516256  1.0000
  S   S3        1.0  0.02729619570022264  0.987678598580797  0.3965804948395033  1.0000
  S   S4        1.0  0.9727038046395804  0.987678598580797  0.10341950513683257  1.0000
