data_image0
_chemical_formula_structural       H36C32N8O8Cl4
_chemical_formula_sum              "H36 C32 N8 O8 Cl4"
_cell_length_a       7.701082316329226
_cell_length_b       15.315811427909562
_cell_length_c       8.29041870982095
_cell_angle_alpha    90.0
_cell_angle_beta     99.39655983352546
_cell_angle_gamma    90.0

_space_group_name_H-M_alt    "P 1"
_space_group_IT_number       1

loop_
  _space_group_symop_operation_xyz
  'x, y, z'

loop_
  _atom_site_type_symbol
  _atom_site_label
  _atom_site_symmetry_multiplicity
  _atom_site_fract_x
  _atom_site_fract_y
  _atom_site_fract_z
  _atom_site_occupancy
  H   H1        1.0  0.9296684781234762  0.4171869939816896  0.13717413485018634  1.0000
  H   H2        1.0  0.07033152117361012  0.917186994376394  0.3628258652358078  1.0000
  H   H3        1.0  0.07033152160938476  0.5828130055018792  0.8628258646216087  1.0000
  H   H4        1.0  0.929668478815188  0.08281300576009477  0.6371741354579897  1.0000
  H   H5        1.0  0.6067994564744283  0.43331651680604566  0.052752032003105076  1.0000
  H   H6        1.0  0.3932005441137133  0.9333165172007502  0.44724796804413786  1.0000
  H   H7        1.0  0.3932005448054251  0.5666834833304432  0.9472479686519413  1.0000
  H   H8        1.0  0.6067994556191476  0.06668348293573875  0.5527520314276572  1.0000
  H   H9        1.0  0.4261163824477677  0.3081284685576808  0.9353856612500113  1.0000
  H   H10       1.0  0.573883617976805  0.8081284689523852  0.5646143388295871  1.0000
  H   H11       1.0  0.5738836172850932  0.691871531578808  0.06461433822178375  1.0000
  H   H12       1.0  0.4261163820119931  0.1918715311841036  0.43538566186421035  1.0000
  H   H13       1.0  0.5656006522849851  0.16142638485967908  0.908982618566857  1.0000
  H   H14       1.0  0.4343993468485321  0.6614263852543835  0.5910173815514925  1.0000
  H   H15       1.0  0.4343993477038129  0.8385736152768098  0.0910173821269405  1.0000
  H   H16       1.0  0.5656006528843287  0.33857361488210536  0.4089826179203024  1.0000
  H   H17       1.0  0.8900940684325434  0.14354126977522233  0.9970878374539123  1.0000
  H   H18       1.0  0.1099059319920294  0.6435412695170067  0.5029121626256862  1.0000
  H   H19       1.0  0.10990593130031757  0.8564587303612664  0.0029121620178828066  1.0000
  H   H20       1.0  0.8900940679967688  0.3564587306194821  0.49708783806811124  1.0000
  H   H21       1.0  0.22879351583728177  0.4637404726110173  0.6567048309396075  1.0000
  H   H22       1.0  0.771206484587291  0.9637404723528017  0.8432951691399909  1.0000
  H   H23       1.0  0.7712064851866346  0.5362595275254716  0.34329516849343633  1.0000
  H   H24       1.0  0.22879351540150714  0.03625952778368715  0.1567048315538066  1.0000
  H   H25       1.0  0.3035887167958316  0.4645423380595315  0.1812441060551033  1.0000
  H   H26       1.0  0.6964112825012546  0.9645423384542359  0.3187558940308908  1.0000
  H   H27       1.0  0.6964112831929666  0.5354576620769573  0.8187558946386942  1.0000
  H   H28       1.0  0.30358871723160624  0.0354576616822529  0.6812441054409042  1.0000
  H   H29       1.0  0.3934308200572754  0.551103512192566  0.3173556901436213  1.0000
  H   H30       1.0  0.6065691792398109  0.05110351179786161  0.18264430994237277  1.0000
  H   H31       1.0  0.6065691796755854  0.4488964879439228  0.6826443093281737  1.0000
  H   H32       1.0  0.3934308207489872  0.9488964883386273  0.8173556907514248  1.0000
  H   H33       1.0  0.1646452370649919  0.5482869536182426  0.23454193180088204  1.0000
  H   H34       1.0  0.8353547622320944  0.04828695387645817  0.26545806828511204  1.0000
  H   H35       1.0  0.8353547629238062  0.45171304651824623  0.7654580688929155  1.0000
  H   H36       1.0  0.16464523750076654  0.9517130462600306  0.734541931186683  1.0000
  C   C1        1.0  0.9215800533371629  0.27897828072065695  0.07318646857584372  1.0000
  C   C2        1.0  0.07841994595992346  0.7789782804624413  0.4268135315101504  1.0000
  C   C3        1.0  0.07841994665163529  0.7210217194158319  0.9268135321179537  1.0000
  C   C4        1.0  0.9215800537729374  0.22102171902112744  0.5731864679616446  1.0000
  C   C5        1.0  0.8482110493947884  0.3618927078130338  0.08995844958973871  1.0000
  C   C6        1.0  0.1517889511933533  0.8618927082077382  0.4100415504575042  1.0000
  C   C7        1.0  0.15178895033807252  0.638107292323455  0.9100415498820562  1.0000
  C   C8        1.0  0.8482110487954448  0.13810729192875057  0.5899584502362935  1.0000
  C   C9        1.0  0.6678417321036585  0.36991880819815576  0.0416302182862506  1.0000
  C   C10       1.0  0.33215826719342767  0.8699188079399401  0.4583697817997435  1.0000
  C   C11       1.0  0.3321582676292023  0.630081191938333  0.9583697811855443  1.0000
  C   C12       1.0  0.6678417327953703  0.13008119154362863  0.541630218894054  1.0000
  C   C13       1.0  0.5668427714429226  0.29835453194945033  0.9763141659597243  1.0000
  C   C14       1.0  0.4331572289816501  0.7983545323441547  0.523685834119874  1.0000
  C   C15       1.0  0.43315722828993825  0.7016454681870384  0.023685833512070646  1.0000
  C   C16       1.0  0.566842771007148  0.20164546779233408  0.4763141665739235  1.0000
  C   C17       1.0  0.644477391572594  0.21684697187821833  0.9602406586584713  1.0000
  C   C18       1.0  0.3555226075609233  0.7168469722729227  0.5397593414598783  1.0000
  C   C19       1.0  0.3555226081602669  0.7831530282582705  0.03975934081332374  1.0000
  C   C20       1.0  0.6444773924278748  0.28315302786356605  0.46024065923391916  1.0000
  C   C21       1.0  0.8241985230018324  0.2054300808553007  0.008947228728583017  1.0000
  C   C22       1.0  0.17580147629525383  0.7054300812500052  0.4910527713574111  1.0000
  C   C23       1.0  0.17580147673102842  0.7945699192811881  0.991052770743212  1.0000
  C   C24       1.0  0.8241985236935442  0.29456991888648365  0.5089472293363865  1.0000
  C   C25       1.0  0.23779672319200743  0.4560715508204314  0.42254960731276253  1.0000
  C   C26       1.0  0.7622032773961342  0.9560715512151359  0.07745039273448036  1.0000
  C   C27       1.0  0.7622032767967907  0.5439284493160574  0.577450393381035  1.0000
  C   C28       1.0  0.2377967223367266  0.04392844892135302  0.9225496067373146  1.0000
  C   C29       1.0  0.28075771875775263  0.5078344576524729  0.2809442167574604  1.0000
  C   C30       1.0  0.7192422818303891  0.007834457257768513  0.2190557832897825  1.0000
  C   C31       1.0  0.7192422812310454  0.4921655424840159  0.7190557839363372  1.0000
  C   C32       1.0  0.28075771919352727  0.9921655428787204  0.7809442161432613  1.0000
  N   N1        1.0  0.09794052477801984  0.2673178870914586  0.12162444370491504  1.0000
  N   N2        1.0  0.9020594758101218  0.767317886833243  0.37837555634232783  1.0000
  N   N3        1.0  0.9020594752107783  0.7326821130450302  0.8783755569888825  1.0000
  N   N4        1.0  0.09794052392273905  0.2326821126503258  0.6216244431294671  1.0000
  N   N5        1.0  0.23804107078796377  0.24822820050343916  0.1672116193749106  1.0000
  N   N6        1.0  0.7619589285091225  0.7482282002452235  0.33278838071108346  1.0000
  N   N7        1.0  0.7619589292008343  0.7517717996330496  0.8327883813188869  1.0000
  N   N8        1.0  0.2380410712237384  0.25177179989126525  0.6672116187607114  1.0000
  O   O1        1.0  0.17791226957859255  0.38107863220124677  0.41020756838446815  1.0000
  O   O2        1.0  0.8220877297184938  0.8810786325959511  0.08979243170152593  1.0000
  O   O3        1.0  0.8220877304102056  0.6189213679352421  0.5897924323093293  1.0000
  O   O4        1.0  0.1779122700143672  0.11892136754053764  0.9102075677702691  1.0000
  O   O5        1.0  0.2656512959979397  0.5001657356554151  0.5638814078861741  1.0000
  O   O6        1.0  0.734348704426633  0.000165735913630693  0.9361185921934243  1.0000
  O   O7        1.0  0.7343487039908584  0.4998342644810737  0.4361185928076234  1.0000
  O   O8        1.0  0.26565129659728326  0.999834264222858  0.0638814072396195  1.0000
  Cl  Cl1       1.0  0.16788363161581568  0.09023904064798471  0.35067175879882895  1.0000
  Cl  Cl2       1.0  0.8321163676812706  0.5902390410426891  0.14932824128716515  1.0000
  Cl  Cl3       1.0  0.8321163681170453  0.909760958835584  0.6493282406729661  1.0000
  Cl  Cl4       1.0  0.1678836323075275  0.40976095909379967  0.8506717594066323  1.0000
