data_image0
_chemical_formula_structural       H68C96N16O16Cl4
_chemical_formula_sum              "H68 C96 N16 O16 Cl4"
_cell_length_a       7.092063482919774
_cell_length_b       13.137902605145735
_cell_length_c       21.91708702475537
_cell_angle_alpha    77.98743569928081
_cell_angle_beta     84.68227376388238
_cell_angle_gamma    82.24506910299748

_space_group_name_H-M_alt    "P 1"
_space_group_IT_number       1

loop_
  _space_group_symop_operation_xyz
  'x, y, z'

loop_
  _atom_site_type_symbol
  _atom_site_label
  _atom_site_symmetry_multiplicity
  _atom_site_fract_x
  _atom_site_fract_y
  _atom_site_fract_z
  _atom_site_occupancy
  H   H1        1.0  0.28941921741354937  0.05558245414968679  0.8478671852858769  1.0000
  H   H2        1.0  0.7105807812827257  0.9444175458577271  0.15213281480741364  1.0000
  H   H3        1.0  0.2874332070318909  0.9986271545741325  0.9628203063290317  1.0000
  H   H4        1.0  0.7125667930744972  0.0013728454320615035  0.03717969376501243  1.0000
  H   H5        1.0  0.13766491032548028  0.12670923030848508  0.030353678866654306  1.0000
  H   H6        1.0  0.8623350897809078  0.8732907696977089  0.9696463212273899  1.0000
  H   H7        1.0  0.9715013311175594  0.30082382853608625  0.03723853843889201  1.0000
  H   H8        1.0  0.028498669179583214  0.6991761707027624  0.962761461652669  1.0000
  H   H9        1.0  0.8369300310976415  0.4790972611888734  0.9850629858581536  1.0000
  H   H10       1.0  0.1630699690087463  0.5209027388173205  0.014937014235890528  1.0000
  H   H11       1.0  0.764911914771782  0.6078916241936284  0.8884049029320518  1.0000
  H   H12       1.0  0.23508808533460593  0.3921083758125655  0.11159509716199234  1.0000
  H   H13       1.0  0.7786900544840012  0.6505262625338913  0.7708885873397641  1.0000
  H   H14       1.0  0.2213099456223869  0.34947373747230265  0.22911141275428012  1.0000
  H   H15       1.0  0.9396015943575348  0.516554600807613  0.7120013571615171  1.0000
  H   H16       1.0  0.06039840574885339  0.48344539919858087  0.2879986429325271  1.0000
  H   H17       1.0  0.1350058502818616  0.20842540454929526  0.7647786048880875  1.0000
  H   H18       1.0  0.8649941498245264  0.7915745954568986  0.23522139520595667  1.0000
  H   H19       1.0  0.2224737852312634  0.3659193365890918  0.7150011192506965  1.0000
  H   H20       1.0  0.7775262148751246  0.634080663417102  0.2849988808433476  1.0000
  H   H21       1.0  0.2701625666118061  0.41230915073043173  0.5975400838728059  1.0000
  H   H22       1.0  0.729837433590901  0.5876908494352382  0.4024599157537258  1.0000
  H   H23       1.0  0.21534259319609653  0.27923945599172384  0.5353371468939977  1.0000
  H   H24       1.0  0.7846574070066106  0.7207605441739462  0.46466285273253405  1.0000
  H   H25       1.0  0.12193305609166533  0.10517284984983313  0.533907254428087  1.0000
  H   H26       1.0  0.8780669440147227  0.8948271501563606  0.4660927456659573  1.0000
  H   H27       1.0  0.0276526221640452  0.9328178119369884  0.5915937864957543  1.0000
  H   H28       1.0  0.9723473779423429  0.06718218806920542  0.4084062135982899  1.0000
  H   H29       1.0  0.942561340434985  0.8157491383831946  0.693739739070889  1.0000
  H   H30       1.0  0.05743865826128994  0.1842508616242193  0.30626026102240156  1.0000
  H   H31       1.0  0.9096176623245719  0.7878402894163846  0.8107518720519199  1.0000
  H   H32       1.0  0.09038233778181608  0.21215971058980934  0.18924812804212424  1.0000
  H   H33       1.0  0.9833944938909597  0.9287164388189462  0.8628622680338979  1.0000
  H   H34       1.0  0.01660550480531553  0.07128356118846771  0.13713773205939275  1.0000
  H   H35       1.0  0.7507823701617903  0.4454122323652417  0.6522672846687894  1.0000
  H   H36       1.0  0.24921762994459784  0.5545877676409523  0.34773271542525475  1.0000
  H   H37       1.0  0.8021621929786124  0.4984536030518362  0.5373132572771384  1.0000
  H   H38       1.0  0.1978378072240949  0.5015463971138338  0.4626867423493933  1.0000
  H   H39       1.0  0.7626671612206181  0.36875581082633097  0.47026855782014526  1.0000
  H   H40       1.0  0.2373328388857701  0.6312441891798629  0.5297314422738989  1.0000
  H   H41       1.0  0.6957795322293097  0.19307525179801388  0.46387146120875367  1.0000
  H   H42       1.0  0.3042204678770784  0.80692474820818  0.5361285388852904  1.0000
  H   H43       1.0  0.6207760409949638  0.015381158358173965  0.5161925859295884  1.0000
  H   H44       1.0  0.37922395911142454  0.9846188416480199  0.4838074141644557  1.0000
  H   H45       1.0  0.5372283177519495  0.8901708938313447  0.6130017025153774  1.0000
  H   H46       1.0  0.46277168235443855  0.1098291061748492  0.3869982975786668  1.0000
  H   H47       1.0  0.48251784201218556  0.8524488860816171  0.7302337703588118  1.0000
  H   H48       1.0  0.5174821581905217  0.14755111408405286  0.26976622926772004  1.0000
  H   H49       1.0  0.5194869994006263  0.9910489350010173  0.7883046227361449  1.0000
  H   H50       1.0  0.480513000705762  0.008951065005176576  0.21169537735789926  1.0000
  H   H51       1.0  0.6130793883190124  0.29977933494447445  0.7353061871573969  1.0000
  H   H52       1.0  0.38692061178737575  0.7002206650617195  0.2646938129366471  1.0000
  H   H53       1.0  0.739218093871219  0.14109973235780982  0.7857320375833781  1.0000
  H   H54       1.0  0.26078190623516917  0.8589002676483841  0.21426796251066615  1.0000
  H   H55       1.0  0.7348169945320665  0.09447547700481926  0.9035027258170588  1.0000
  H   H56       1.0  0.26518300576507603  0.9055245222340293  0.09649727427450226  1.0000
  H   H57       1.0  0.583751761837406  0.230721719496646  0.9646916842434605  1.0000
  H   H58       1.0  0.41624823845973663  0.7692782797422025  0.03530831584810057  1.0000
  H   H59       1.0  0.42262950305545494  0.40912866209355997  0.9648634993955904  1.0000
  H   H60       1.0  0.5773704957371393  0.5908713380733299  0.035136500230187946  1.0000
  H   H61       1.0  0.301964111993633  0.5861394262336723  0.906001269905877  1.0000
  H   H62       1.0  0.6980358881127553  0.4138605737725215  0.09399873018816712  1.0000
  H   H63       1.0  0.2489290825620448  0.707948464754734  0.8031855895481755  1.0000
  H   H64       1.0  0.7510709161342303  0.29205153525267985  0.196814410545115  1.0000
  H   H65       1.0  0.2713436703457059  0.7350911967113091  0.6858824719978214  1.0000
  H   H66       1.0  0.7286563297606822  0.26490880329488486  0.3141175280962228  1.0000
  H   H67       1.0  0.4074494625886395  0.5856515521341098  0.6351245534803365  1.0000
  H   H68       1.0  0.5925505375177487  0.41434844787208414  0.36487544661370763  1.0000
  C   C1        1.0  0.22698886255059494  0.109816461780845  0.877632407104906  1.0000
  C   C2        1.0  0.7730111376521123  0.8901835383848249  0.12236759252162573  1.0000
  C   C3        1.0  0.22417373212631106  0.0773986138546591  0.9430048528240891  1.0000
  C   C4        1.0  0.7758262680763962  0.9226013863110109  0.056995146802442595  1.0000
  C   C5        1.0  0.1413552706478331  0.14729673576907037  0.9795350956311718  1.0000
  C   C6        1.0  0.8586447294585551  0.8527032642371236  0.02046490446287224  1.0000
  C   C7        1.0  0.06434309666045294  0.24869170694900783  0.9505590118839518  1.0000
  C   C8        1.0  0.9356569034459351  0.7513082930571862  0.049440988210092546  1.0000
  C   C9        1.0  0.9775547811222135  0.32393839594829404  0.9864870086247202  1.0000
  C   C10       1.0  0.02244521898417487  0.6760616040578998  0.013512991469323929  1.0000
  C   C11       1.0  0.9030882056999602  0.4214712901142948  0.9578729312660997  1.0000
  C   C12       1.0  0.09691179440642786  0.5785287098918992  0.042127068827944404  1.0000
  C   C13       1.0  0.9106331232343842  0.4510237613157745  0.891273110648794  1.0000
  C   C14       1.0  0.08936687546189093  0.5489762386916396  0.10872688944449645  1.0000
  C   C15       1.0  0.8327322746876379  0.5512814519129485  0.8606941297791738  1.0000
  C   C16       1.0  0.16726772560950467  0.4487185473259002  0.13930587031238725  1.0000
  C   C17       1.0  0.8406561527557461  0.5750965532586002  0.7962424702881326  1.0000
  C   C18       1.0  0.1593438473506421  0.4249034467475937  0.20375752980591164  1.0000
  C   C19       1.0  0.9286442708695347  0.49848401794031855  0.7630661403216471  1.0000
  C   C20       1.0  0.07135572923685328  0.5015159820658754  0.23693385977239703  1.0000
  C   C21       1.0  0.9948946785581451  0.3783652721608804  0.8536558519267322  1.0000
  C   C22       1.0  0.0051053215482429245  0.6216347278453137  0.1463441481673119  1.0000
  C   C23       1.0  0.07410657172220955  0.27450413351918396  0.8839423514299727  1.0000
  C   C24       1.0  0.9258934284804978  0.7254958666464859  0.11605764819655912  1.0000
  C   C25       1.0  0.20213184692259564  0.31272317827801993  0.6850665471243224  1.0000
  C   C26       1.0  0.7978681531837925  0.6872768217281741  0.31493345296972175  1.0000
  C   C27       1.0  0.22582238797340895  0.3366726020856596  0.6200824793814718  1.0000
  C   C28       1.0  0.7741776122292983  0.6633273980800105  0.3799175202450599  1.0000
  C   C29       1.0  0.19430762650980474  0.2634423297475179  0.5861935571456178  1.0000
  C   C30       1.0  0.8056923735965833  0.736557670258676  0.4138064429484263  1.0000
  C   C31       1.0  0.13886034232284325  0.16576542804983413  0.6175559077623749  1.0000
  C   C32       1.0  0.861139657783545  0.8342345719563599  0.38244409233166926  1.0000
  C   C33       1.0  0.10666835856064326  0.08680271169196292  0.5847975830343829  1.0000
  C   C34       1.0  0.8933316415457448  0.9131972883142311  0.41520241705966116  1.0000
  C   C35       1.0  0.05468206795952878  0.9926751955055644  0.6164558060519636  1.0000
  C   C36       1.0  0.9453179321468593  0.007324804500629612  0.3835441940420805  1.0000
  C   C37       1.0  0.030846802792203733  0.9705904571965751  0.6832866526267163  1.0000
  C   C38       1.0  0.9691531973141844  0.029409542809618744  0.3167133474673279  1.0000
  C   C39       1.0  0.9752513201404069  0.8749443420072872  0.718131926492481  1.0000
  C   C40       1.0  0.024748678555868056  0.12505565800012652  0.2818680736008096  1.0000
  C   C41       1.0  0.9572092242523553  0.8593808599191384  0.782645719988907  1.0000
  C   C42       1.0  0.04279077595035185  0.14061914024653158  0.21735427963762477  1.0000
  C   C43       1.0  0.9946511132880863  0.9394497299511587  0.8120028690281899  1.0000
  C   C44       1.0  0.005348886914620904  0.0605502702145113  0.18799713059834192  1.0000
  C   C45       1.0  0.06169809858227294  0.046809404037434305  0.7176583138002416  1.0000
  C   C46       1.0  0.9383019015241152  0.9531905959687595  0.2823416862938026  1.0000
  C   C47       1.0  0.11567413700359322  0.14569236461507581  0.6838344143703516  1.0000
  C   C48       1.0  0.8843258631027948  0.8543076353911182  0.31616558572369247  1.0000
  C   C49       1.0  0.7342538886050204  0.3906439813639804  0.6226293157159176  1.0000
  C   C50       1.0  0.26574611009125493  0.6093560186434334  0.377370684377373  1.0000
  C   C51       1.0  0.762079152779028  0.42079603092857637  0.5573129610403142  1.0000
  C   C52       1.0  0.23792084732736  0.5792039690776175  0.44268703905372997  1.0000
  C   C53       1.0  0.7384955038534092  0.35008308625803325  0.5209489458867633  1.0000
  C   C54       1.0  0.261504496252979  0.6499169137481607  0.4790510542072807  1.0000
  C   C55       1.0  0.6904342603132876  0.24980257326444436  0.5501423444192336  1.0000
  C   C56       1.0  0.3095657398894196  0.7501974269012256  0.4498576552072982  1.0000
  C   C57       1.0  0.6713555256058574  0.17261971629369305  0.5144713042113839  1.0000
  C   C58       1.0  0.3286444745005307  0.8273802837125009  0.4855286958826603  1.0000
  C   C59       1.0  0.6287193886703171  0.07533400877620439  0.5432401801010817  1.0000
  C   C60       1.0  0.371280611436071  0.9246659912299896  0.4567598199929625  1.0000
  C   C61       1.0  0.5960226591585406  0.04904047310250427  0.6095956884514073  1.0000
  C   C62       1.0  0.4039773395377345  0.9509595269049095  0.39040431164188333  1.0000
  C   C63       1.0  0.5471149752168565  0.9495790464421616  0.6403058475577089  1.0000
  C   C64       1.0  0.45288502347941856  0.050420953565252245  0.3596941525355816  1.0000
  C   C65       1.0  0.517059259883163  0.928444649633209  0.7044833374983724  1.0000
  C   C66       1.0  0.48294074022322503  0.07155535037298484  0.2955166625956717  1.0000
  C   C67       1.0  0.5377717580967224  0.00720773961514586  0.7373367159581269  1.0000
  C   C68       1.0  0.4622282420096658  0.992792260391048  0.2626632841359172  1.0000
  C   C69       1.0  0.6130408558386274  0.12372551323642178  0.6469956775505594  1.0000
  C   C70       1.0  0.38695914426776074  0.8762744867697723  0.3530043225434848  1.0000
  C   C71       1.0  0.6642570375095025  0.22629458614107564  0.6166460691071954  1.0000
  C   C72       1.0  0.3357429612830916  0.7737054140258143  0.3833539305185828  1.0000
  C   C73       1.0  0.6780877938667084  0.1952629822658685  0.8154237795967314  1.0000
  C   C74       1.0  0.3219122062396798  0.8047370177403254  0.1845762204973127  1.0000
  C   C75       1.0  0.6729980802513029  0.17157334943838073  0.8804849709986721  1.0000
  C   C76       1.0  0.32700191985508514  0.8284266505678133  0.1195150290953722  1.0000
  C   C77       1.0  0.5891368876845741  0.24639534728107582  0.9137999814035883  1.0000
  C   C78       1.0  0.41086311242181406  0.7536046527251182  0.08620001869045585  1.0000
  C   C79       1.0  0.5111871046768279  0.3456895191764319  0.8818235178715584  1.0000
  C   C80       1.0  0.4888128954295603  0.6543104808297621  0.11817648222248553  1.0000
  C   C81       1.0  0.4280949010907815  0.42696046896463524  0.9139629849917537  1.0000
  C   C82       1.0  0.5719050990156067  0.5730395310415586  0.08603701510229045  1.0000
  C   C83       1.0  0.3606808382619312  0.5234209218259465  0.8815066452042676  1.0000
  C   C84       1.0  0.6393191618444569  0.4765790781802474  0.11849335488977664  1.0000
  C   C85       1.0  0.36806804582323394  0.5453022199294552  0.8146760149844332  1.0000
  C   C86       1.0  0.6319319542831542  0.4546977800767388  0.18532398510961098  1.0000
  C   C87       1.0  0.3045001909982822  0.6444988831829649  0.7791068205973344  1.0000
  C   C88       1.0  0.6954998091081058  0.35550111682322894  0.22089317949670983  1.0000
  C   C89       1.0  0.3181464720986107  0.659578182178562  0.7147305174894116  1.0000
  C   C90       1.0  0.6818535281040966  0.34042181798710813  0.2852694821371201  1.0000
  C   C91       1.0  0.39422927698678073  0.5752553939300523  0.6860039183714557  1.0000
  C   C92       1.0  0.6057707231196073  0.4247446060761416  0.31399608172258847  1.0000
  C   C93       1.0  0.44527166922863776  0.46606886748977866  0.7809645637585502  1.0000
  C   C94       1.0  0.5547283308777504  0.5339311325164152  0.2190354363354939  1.0000
  C   C95       1.0  0.5191034230024567  0.36545147954560425  0.8154781825471474  1.0000
  C   C96       1.0  0.4808965771039313  0.6345485204605896  0.18452181754689667  1.0000
  N   N1        1.0  0.1541798120106879  0.20427609178401365  0.848471222486536  1.0000
  N   N2        1.0  0.8458201880957001  0.7957239082221802  0.15152877760750824  1.0000
  N   N3        1.0  0.002903050729005667  0.4033025691102502  0.7903767811125024  1.0000
  N   N4        1.0  0.9970969479672694  0.5966974308971636  0.20962321898078826  1.0000
  N   N5        1.0  0.1480181747538019  0.22069778596631215  0.7149050682300785  1.0000
  N   N6        1.0  0.8519818253525863  0.7793022140398818  0.2850949318639656  1.0000
  N   N7        1.0  0.04323366762369186  0.031033381166465517  0.7807247123897421  1.0000
  N   N8        1.0  0.9567663324826963  0.9689666188397286  0.21927528770430213  1.0000
  N   N9        1.0  0.6856314198276672  0.2975057856761212  0.6518832379059974  1.0000
  N   N10       1.0  0.3143685802787209  0.7024942143300728  0.3481167621880467  1.0000
  N   N11       1.0  0.584100478873235  0.10155139251996038  0.710110639921433  1.0000
  N   N12       1.0  0.41589952123315316  0.8984486074862336  0.2898893601726112  1.0000
  N   N13       1.0  0.6020704637698041  0.28857283259161937  0.7850173107911469  1.0000
  N   N14       1.0  0.3979295363365839  0.7114271674145746  0.21498268930289738  1.0000
  N   N15       1.0  0.455752271497355  0.48109032510782945  0.7178594899466512  1.0000
  N   N16       1.0  0.5442477287053523  0.5189096750578405  0.2821405096798805  1.0000
  O   O1        1.0  0.6898019678639882  0.17899784478626912  0.07582820297171795  1.0000
  O   O2        1.0  0.3101980323387191  0.8210021553794008  0.9241717966548139  1.0000
  O   O3        1.0  0.473416036929081  0.21909202520799165  0.16039294894756115  1.0000
  O   O4        1.0  0.5265839632736263  0.7809079749576783  0.8396070506789706  1.0000
  O   O5        1.0  0.4119747522284652  0.0902666331825245  0.10428271926118039  1.0000
  O   O6        1.0  0.588025247974242  0.9097333669831454  0.8957172803653514  1.0000
  O   O7        1.0  0.3807255397202393  0.27173206378027964  0.05544049597317272  1.0000
  O   O8        1.0  0.6192744604824679  0.7282679363853904  0.944559503653359  1.0000
  O   O9        1.0  0.31181136135591303  0.3198600152599195  0.43629088263209703  1.0000
  O   O10       1.0  0.688188638750475  0.6801399847462746  0.5637091174619471  1.0000
  O   O11       1.0  0.23149710050000288  0.2918772797307321  0.3381726143885363  1.0000
  O   O12       1.0  0.7685028997027042  0.7081227204349378  0.6618273852379954  1.0000
  O   O13       1.0  0.06107284552744418  0.21693352446703576  0.43245078951103616  1.0000
  O   O14       1.0  0.9389271545789437  0.7830664755391581  0.5675492105830081  1.0000
  O   O15       1.0  0.016856845775122566  0.40217072796479364  0.39407060448886294  1.0000
  O   O16       1.0  0.9831431543312656  0.5978292720414002  0.6059293956051812  1.0000
  Cl  Cl1       1.0  0.48940186553710024  0.18988678249239058  0.09918045449177693  1.0000
  Cl  Cl2       1.0  0.5105981345692879  0.8101132175138033  0.9008195456022672  1.0000
  Cl  Cl3       1.0  0.15541226243590447  0.30779259095213696  0.40012650656031834  1.0000
  Cl  Cl4       1.0  0.8445877377668028  0.692207409213533  0.5998734930662134  1.0000
