data_image0
_chemical_formula_structural       H84C32N16I16
_chemical_formula_sum              "H84 C32 N16 I16"
_cell_length_a       9.519972426860123
_cell_length_b       14.522493716220069
_cell_length_c       13.045177378758993
_cell_angle_alpha    90.0
_cell_angle_beta     99.11798829680298
_cell_angle_gamma    90.0

_space_group_name_H-M_alt    "P 1"
_space_group_IT_number       1

loop_
  _space_group_symop_operation_xyz
  'x, y, z'

loop_
  _atom_site_type_symbol
  _atom_site_label
  _atom_site_symmetry_multiplicity
  _atom_site_fract_x
  _atom_site_fract_y
  _atom_site_fract_z
  _atom_site_occupancy
  H   H1        1.0  0.5923319001583357  0.6428524799134799  0.26101368147999543  1.0000
  H   H2        1.0  0.40766809982750957  0.14285247978333934  0.23898631803531836  1.0000
  H   H3        1.0  0.40766809983710656  0.35714752034680125  0.7389863181228378  1.0000
  H   H4        1.0  0.5923319001679327  0.8571475204769418  0.7610136815675148  1.0000
  H   H5        1.0  0.5608555390086367  0.6716438623144929  0.3882633130729114  1.0000
  H   H6        1.0  0.43914445992122875  0.17164386218435232  0.11173668641344855  1.0000
  H   H7        1.0  0.4391444599308258  0.3283561379457883  0.611736686500968  1.0000
  H   H8        1.0  0.5608555390182338  0.8283561373873418  0.888263313160431  1.0000
  H   H9        1.0  0.4145904820904789  0.7766633500004525  0.27275386377962424  1.0000
  H   H10       1.0  0.5854095169686842  0.27666334987031194  0.22724613648257272  1.0000
  H   H11       1.0  0.5854095168489836  0.2233366502598286  0.7272461357942552  1.0000
  H   H12       1.0  0.4145904821000759  0.7233366497013822  0.7727538638671436  1.0000
  H   H13       1.0  0.35108566438154626  0.6885635439340182  0.18369367268935355  1.0000
  H   H14       1.0  0.6489143357335966  0.18856354380387758  0.31630632760179717  1.0000
  H   H15       1.0  0.6489143357431936  0.311436456326263  0.8163063276893167  1.0000
  H   H16       1.0  0.3510856643911433  0.8114364557678166  0.683693672776873  1.0000
  H   H17       1.0  0.11594993664351304  0.691530487548659  0.1846210769716089  1.0000
  H   H18       1.0  0.8840500622863524  0.19153048741851836  0.31537892251475114  1.0000
  H   H19       1.0  0.8840500622959494  0.3084695127116222  0.8153789226022706  1.0000
  H   H20       1.0  0.11594993665311004  0.8084695121531759  0.6846210770591283  1.0000
  H   H21       1.0  0.11132756734349686  0.7856504814498007  0.2695628750213925  1.0000
  H   H22       1.0  0.8886724315863685  0.28565048131966  0.2304371244649675  1.0000
  H   H23       1.0  0.8886724315959655  0.21434951881048062  0.7304371245524869  1.0000
  H   H24       1.0  0.11132756735309388  0.7143495189406212  0.769562875108912  1.0000
  H   H25       1.0  0.007555268364042333  0.6916350570550864  0.39517142126176846  1.0000
  H   H26       1.0  0.9924447317511006  0.19163505692494576  0.1048285790293823  1.0000
  H   H27       1.0  0.9924447317606974  0.3083649432051948  0.6048285791169017  1.0000
  H   H28       1.0  0.007555268373639346  0.8083649433353355  0.895171421349288  1.0000
  H   H29       1.0  0.9041435408701034  0.6885367606550855  0.26910950291169144  1.0000
  H   H30       1.0  0.09585645911574167  0.1885367605249449  0.23089049660362237  1.0000
  H   H31       1.0  0.09585645912533866  0.31146323960519573  0.7308904966911418  1.0000
  H   H32       1.0  0.9041435408797006  0.8114632397353363  0.7691095029992109  1.0000
  H   H33       1.0  0.11432059687365341  0.5507313500206305  0.19172792345349243  1.0000
  H   H34       1.0  0.8856794032414895  0.050731349890489816  0.3082720768376583  1.0000
  H   H35       1.0  0.8856794032510865  0.4492686502396508  0.8082720769251777  1.0000
  H   H36       1.0  0.11432059688325043  0.9492686503697915  0.691727923541012  1.0000
  H   H37       1.0  0.9443565550825365  0.49866636209397  0.17940596690056804  1.0000
  H   H38       1.0  0.055643445032606265  0.9986663622241105  0.3205940333905827  1.0000
  H   H39       1.0  0.05564344504220327  0.5013336381663112  0.8205940334781021  1.0000
  H   H40       1.0  0.9443565550921335  0.0013336380361706269  0.6794059669880875  1.0000
  H   H41       1.0  0.032915113692729266  0.383258381705032  0.3150708931757053  1.0000
  H   H42       1.0  0.9670848853664338  0.8832583818351726  0.18492910708649155  1.0000
  H   H43       1.0  0.9670848852467333  0.6167416185552491  0.6849291063981741  1.0000
  H   H44       1.0  0.03291511370232629  0.11674161842510856  0.8150708932632249  1.0000
  H   H45       1.0  0.09832422938415357  0.37682048668321655  0.1944978188466664  1.0000
  H   H46       1.0  0.9016757707309893  0.8768204868133571  0.3055021814444843  1.0000
  H   H47       1.0  0.9016757707405862  0.6231795128884776  0.8055021815320038  1.0000
  H   H48       1.0  0.098324229264453  0.12317951275833708  0.6944978181583489  1.0000
  H   H49       1.0  0.5295386773280614  0.4754872878538459  0.20637949553978865  1.0000
  H   H50       1.0  0.47046132265778384  0.9754872879839864  0.2936205039755251  1.0000
  H   H51       1.0  0.47046132266738083  0.5245127124064353  0.7936205040630445  1.0000
  H   H52       1.0  0.5295386773376585  0.02451271227629468  0.7063794956273081  1.0000
  H   H53       1.0  0.35688129836504157  0.5256158046379098  0.1787152871630428  1.0000
  H   H54       1.0  0.6431187017501012  0.025615804507769208  0.3212847131281079  1.0000
  H   H55       1.0  0.6431187017596983  0.4743841956223714  0.8212847132156275  1.0000
  H   H56       1.0  0.3568812983746386  0.974384195752512  0.6787152872505624  1.0000
  H   H57       1.0  0.33581001408296773  0.3566683815614129  0.2001798092118274  1.0000
  H   H58       1.0  0.664189986032175  0.8566683816915535  0.29982019107932334  1.0000
  H   H59       1.0  0.6641899860417722  0.6433316186988683  0.7998201911668429  1.0000
  H   H60       1.0  0.3358100140925647  0.14333161856872773  0.700179809299347  1.0000
  H   H61       1.0  0.44795116686223563  0.36116098877301933  0.3232479878455177  1.0000
  H   H62       1.0  0.5520488332529072  0.86116098890316  0.176752012445633  1.0000
  H   H63       1.0  0.5520488332625042  0.6388390114872619  0.6767520125331524  1.0000
  H   H64       1.0  0.4479511667425351  0.13883901135712123  0.8232479871572002  1.0000
  H   H65       1.0  0.25369014305458665  0.381446945562311  0.39358667401428593  1.0000
  H   H66       1.0  0.7463098570605562  0.8814469456924516  0.10641332627686481  1.0000
  H   H67       1.0  0.7463098570701532  0.6185530540093832  0.6064133263643843  1.0000
  H   H68       1.0  0.25369014306418364  0.11855305387924261  0.8935866741018054  1.0000
  H   H69       1.0  0.37121053444672936  0.5545208713711224  0.3630761656359352  1.0000
  H   H70       1.0  0.628789465539116  0.054520871929568664  0.13692383387937854  1.0000
  H   H71       1.0  0.628789465548713  0.44547912820057195  0.636923833966898  1.0000
  H   H72       1.0  0.37121053445632635  0.9454791283307126  0.8630761657234548  1.0000
  H   H73       1.0  0.9503996349268943  0.5361489426091902  0.36748214096044035  1.0000
  H   H74       1.0  0.04960036505895115  0.0361489424790497  0.13251785855487339  1.0000
  H   H75       1.0  0.04960036506854815  0.4638510576510909  0.6325178586423928  1.0000
  H   H76       1.0  0.950399634936491  0.9638510570926445  0.8674821410479598  1.0000
  H   H77       1.0  0.2808742363031578  0.7059548105398293  0.3943089477648239  1.0000
  H   H78       1.0  0.7191257636826875  0.20595481109827568  0.10569105175048989  1.0000
  H   H79       1.0  0.7191257636922844  0.2940451890318649  0.6056910518380093  1.0000
  H   H80       1.0  0.28087423631275477  0.7940451891620054  0.8943089478523435  1.0000
  H   H81       1.0  0.5448461795734256  0.5168704229919086  0.383103665677949  1.0000
  H   H82       1.0  0.45515382054171716  0.016870423550354893  0.11689633461320174  1.0000
  H   H83       1.0  0.45515382055131415  0.4831295765797857  0.6168963347007211  1.0000
  H   H84       1.0  0.5448461795830226  0.9831295767099262  0.8831036657654685  1.0000
  C   C1        1.0  0.5113260272177669  0.645034409588864  0.3121404125019873  1.0000
  C   C2        1.0  0.48867397289737596  0.14503440945872345  0.18785958778916342  1.0000
  C   C3        1.0  0.48867397290697295  0.35496559067141714  0.687859587876683  1.0000
  C   C4        1.0  0.5113260272273639  0.8549655901129707  0.8121404125895068  1.0000
  C   C5        1.0  0.3830019050153486  0.7033632962492798  0.26674793537044084  1.0000
  C   C6        1.0  0.6169980950997942  0.2033632961191392  0.23325206492070988  1.0000
  C   C7        1.0  0.6169980951093912  0.2966367040110014  0.7332520650082294  1.0000
  C   C8        1.0  0.38300190489564806  0.796636704141142  0.7667479346821233  1.0000
  C   C9        1.0  0.12561209022270617  0.7102659661322104  0.26719060936295064  1.0000
  C   C10       1.0  0.8743879097631392  0.21026596600206973  0.23280939015236313  1.0000
  C   C11       1.0  0.8743879097727361  0.2897340334394839  0.7328093902398826  1.0000
  C   C12       1.0  0.1256120902323032  0.7897340335696245  0.7671906094504701  1.0000
  C   C13       1.0  0.0063453591150517035  0.666105756974487  0.3156777466959915  1.0000
  C   C14       1.0  0.9936546410000912  0.16610575684434647  0.18432225359515922  1.0000
  C   C15       1.0  0.9936546408803903  0.3338942425972072  0.6843222529068417  1.0000
  C   C16       1.0  0.0063453591246487055  0.8338942427273477  0.815677746783511  1.0000
  C   C17       1.0  0.04339204174893249  0.5130755258429123  0.23553535840661327  1.0000
  C   C18       1.0  0.9566079582369127  0.013075525712771634  0.26446464110870055  1.0000
  C   C19       1.0  0.9566079582465097  0.48692447372878195  0.76446464119622  1.0000
  C   C20       1.0  0.0433920417585295  0.9869244738589226  0.7355353584941328  1.0000
  C   C21       1.0  0.10435623566190565  0.41624701088687305  0.26763344050845145  1.0000
  C   C22       1.0  0.8956437643239394  0.9162470110170137  0.23236655900686234  1.0000
  C   C23       1.0  0.8956437643335367  0.5837529893734082  0.7323665590943818  1.0000
  C   C24       1.0  0.10435623567150268  0.08375298924326754  0.7676334405959709  1.0000
  C   C25       1.0  0.4309647374476148  0.48866465075993293  0.23758811531763172  1.0000
  C   C26       1.0  0.569035262667528  0.9886646508900735  0.2624118849735191  1.0000
  C   C27       1.0  0.569035262677125  0.5113353488117613  0.7624118850610385  1.0000
  C   C28       1.0  0.4309647373279143  0.011335349370207672  0.7375881146293142  1.0000
  C   C29       1.0  0.3661614075222963  0.39891912458047785  0.27054055169492697  1.0000
  C   C30       1.0  0.6338385925928465  0.8989191247106184  0.22945944859622378  1.0000
  C   C31       1.0  0.6338385926024435  0.6010808749912163  0.7294594486837432  1.0000
  C   C32       1.0  0.3661614074025958  0.10108087486107577  0.7705405510066096  1.0000
  N   N1        1.0  0.4647330522648461  0.549067044945187  0.33040918934658686  1.0000
  N   N2        1.0  0.5352669478502967  0.049067044815046416  0.1695908109445639  1.0000
  N   N3        1.0  0.5352669478598937  0.4509329546265072  0.6695908110320833  1.0000
  N   N4        1.0  0.4647330522744431  0.9509329547566479  0.8304091894341062  1.0000
  N   N5        1.0  0.2644423313722628  0.6812795593741314  0.3198237780622568  1.0000
  N   N6        1.0  0.73555766874288  0.1812795592439908  0.18017622222889393  1.0000
  N   N7        1.0  0.7355576687524771  0.31872044088614976  0.6801762223164134  1.0000
  N   N8        1.0  0.26444233138185974  0.8187204410162904  0.8198237781497762  1.0000
  N   N9        1.0  0.013451002359664677  0.5669801819782193  0.32033879990721625  1.0000
  N   N10       1.0  0.9865489977554781  0.06698018184807868  0.17966120038393446  1.0000
  N   N11       1.0  0.9865489977650753  0.43301981828206193  0.679661200471454  1.0000
  N   N12       1.0  0.013451002239964116  0.9330198184122025  0.8203387992188987  1.0000
  N   N13       1.0  0.2465228158466241  0.41461362198937907  0.3243243838005491  1.0000
  N   N14       1.0  0.753477184139221  0.9146136221195197  0.17567561571476462  1.0000
  N   N15       1.0  0.753477184148818  0.5853863775823153  0.675675615802284  1.0000
  N   N16       1.0  0.24652281585622107  0.08538637814076153  0.8243243838880686  1.0000
  I   I1        1.0  0.48255692404362066  0.1503249953251292  0.49300150128600434  1.0000
  I   I2        1.0  0.5174430760715222  0.6503249954552698  0.006998499005146371  1.0000
  I   I3        1.0  0.5174430760811192  0.849675004246565  0.5069984990926658  1.0000
  I   I4        1.0  0.48255692392392013  0.34967500411642444  0.9930015005976869  1.0000
  I   I5        1.0  0.7861269799443077  0.1002889192765363  0.5231734556661536  1.0000
  I   I6        1.0  0.21387302019002916  0.6002889194066768  0.9768265448000361  1.0000
  I   I7        1.0  0.21387302018043217  0.899711080983745  0.4768265447125166  1.0000
  I   I8        1.0  0.7861269799347106  0.3997110808536043  0.023173455578634112  1.0000
  I   I9        1.0  0.18224812343773275  0.20473624627423073  0.47123548720695296  1.0000
  I   I10       1.0  0.8177518765481125  0.7047362457157843  0.02876451230836079  1.0000
  I   I11       1.0  0.8177518765577095  0.7952637539860504  0.5287645123958802  1.0000
  I   I12       1.0  0.18224812344732977  0.29526375385590986  0.9712354872944724  1.0000
  I   I13       1.0  0.7688024250790371  0.4457463894627107  0.45377344404354625  1.0000
  I   I14       1.0  0.23119757503610572  0.9457463895928513  0.04622655624760448  1.0000
  I   I15       1.0  0.23119757504570276  0.5542536107975704  0.546226556335124  1.0000
  I   I16       1.0  0.7688024250886341  0.05425361066742985  0.9537734441310657  1.0000
