data_image0
_chemical_formula_structural       H32C48N12O20
_chemical_formula_sum              "H32 C48 N12 O20"
_cell_length_a       11.271583129920122
_cell_length_b       8.211221660070613
_cell_length_c       12.674893001486883
_cell_angle_alpha    90.00000079743343
_cell_angle_beta     108.65794390741397
_cell_angle_gamma    89.99995523011616

_space_group_name_H-M_alt    "P 1"
_space_group_IT_number       1

loop_
  _space_group_symop_operation_xyz
  'x, y, z'

loop_
  _atom_site_type_symbol
  _atom_site_label
  _atom_site_symmetry_multiplicity
  _atom_site_fract_x
  _atom_site_fract_y
  _atom_site_fract_z
  _atom_site_occupancy
  H   H1        1.0  0.784916914094525  0.6272049357053681  0.7337580250673053  1.0000
  H   H2        1.0  0.7150831026027546  0.12720462007822528  0.766242031243132  1.0000
  H   H3        1.0  0.2150830861495917  0.3727950642872562  0.2662419754157504  1.0000
  H   H4        1.0  0.284916897641362  0.872795379914399  0.23375796923992362  1.0000
  H   H5        1.0  0.8289549042827855  0.3766162531286171  0.40121250861960456  1.0000
  H   H6        1.0  0.6710450132124606  0.8766162641513154  0.09878751393370534  1.0000
  H   H7        1.0  0.17104509596133127  0.6233837468640071  0.5987874918634511  1.0000
  H   H8        1.0  0.32895498608743723  0.12338373584130935  0.9012124854984052  1.0000
  H   H9        1.0  0.8528583729143012  0.7916252975262025  0.6173457899063668  1.0000
  H   H10       1.0  0.6471416032338386  0.2916252884698405  0.8826541943173404  1.0000
  H   H11       1.0  0.1471416273219626  0.20837470246642173  0.3826542097855212  1.0000
  H   H12       1.0  0.3528583960739121  0.7083747115227842  0.1173458059059379  1.0000
  H   H13       1.0  0.5448584427954996  0.3660183285020191  0.251989825950677  1.0000
  H   H14       1.0  0.955141568971858  0.8660183415330671  0.24801018005504827  1.0000
  H   H15       1.0  0.45514155744076423  0.6339816714906051  0.748010173741211  1.0000
  H   H16       1.0  0.04485843127225873  0.13398165845955703  0.7519898204280074  1.0000
  H   H17       1.0  0.6136083738102274  0.6111367003931507  0.17569896315629413  1.0000
  H   H18       1.0  0.8863915982860889  0.11113670867009846  0.3243010405748359  1.0000
  H   H19       1.0  0.38639162642603636  0.3888632995994735  0.8243010365355938  1.0000
  H   H20       1.0  0.11360840195017483  0.8888632913225257  0.6756989591170521  1.0000
  H   H21       1.0  0.634708217325115  0.8792308455617069  0.2769892591551652  1.0000
  H   H22       1.0  0.8652917777368445  0.3792308363635376  0.22301074706986557  1.0000
  H   H23       1.0  0.36529178291114883  0.12076915443091728  0.7230107405367229  1.0000
  H   H24       1.0  0.13470822250727213  0.6207691636290866  0.77698925341319  1.0000
  H   H25       1.0  0.588544505775591  0.8969707138373783  0.4539045767483939  1.0000
  H   H26       1.0  0.9114555379966179  0.396970670385576  0.04609543920653746  1.0000
  H   H27       1.0  0.4114554944685258  0.10302928615524597  0.5460954237346618  1.0000
  H   H28       1.0  0.08854446223964595  0.6030293296070482  0.9539045604853506  1.0000
  H   H29       1.0  0.5223287032021217  0.7656357849793847  0.6012068557814151  1.0000
  H   H30       1.0  0.9776712950266366  0.2656357621270344  0.8987931430110346  1.0000
  H   H31       1.0  0.4776712970341421  0.23436421501323954  0.3987931439104729  1.0000
  H   H32       1.0  0.022328705209627035  0.7343642378655899  0.1012068566808533  1.0000
  C   C1        1.0  0.7794262240500457  0.3999764066839259  0.6562310521981634  1.0000
  C   C2        1.0  0.7205738311955546  0.8999750703199141  0.8437694614845112  1.0000
  C   C3        1.0  0.22057377619407123  0.6000235933086983  0.3437689482848923  1.0000
  C   C4        1.0  0.27942616811219617  0.10002492967271058  0.15623053873876713  1.0000
  C   C5        1.0  0.7892116592430961  0.3342500397824738  0.5530635251967664  1.0000
  C   C6        1.0  0.7107882259670814  0.8342462123248937  0.9469363931574861  1.0000
  C   C7        1.0  0.2107883400568016  0.665749960210151  0.4469364742353441  1.0000
  C   C8        1.0  0.28921177427703537  0.16575378766773052  0.05306360732556951  1.0000
  C   C9        1.0  0.8236682860117395  0.4294278193688068  0.4780885996410258  1.0000
  C   C10       1.0  0.6763318823184635  0.92942630403782  0.02191115608303998  1.0000
  C   C11       1.0  0.1763317142245242  0.5705721806238174  0.5219114000508622  1.0000
  C   C12       1.0  0.3236681179178002  0.07057369595480428  0.978088843608848  1.0000
  C   C13       1.0  0.8535262202139849  0.5932559774148353  0.5024638022067401  1.0000
  C   C14       1.0  0.6464740975771104  0.09325495583947885  0.9975361219343362  1.0000
  C   C15       1.0  0.14647378003013176  0.40674402257778897  0.49753619827631557  1.0000
  C   C16       1.0  0.35352590266700634  0.9067450441531454  0.0024638785487195143  1.0000
  C   C17       1.0  0.8388395900051295  0.6626512467551112  0.5974181592034379  1.0000
  C   C18       1.0  0.6611604129260046  0.16265097446836532  0.9025819078115084  1.0000
  C   C19       1.0  0.1611604102311341  0.33734875323751295  0.4025818404884502  1.0000
  C   C20       1.0  0.33883958638174616  0.8373490255242594  0.09741809241176984  1.0000
  C   C21       1.0  0.5523668899452345  0.4824052631717543  0.29518422755477264  1.0000
  C   C22       1.0  0.9476331335309187  0.9824052618543164  0.20481576618741928  1.0000
  C   C23       1.0  0.4476331102910292  0.5175947368208699  0.7048157721371152  1.0000
  C   C24       1.0  0.052366866713197915  0.017594738138307763  0.7951842342956363  1.0000
  C   C25       1.0  0.5908645513813512  0.619963906177415  0.25286621234784884  1.0000
  C   C26       1.0  0.9091354490191553  0.1199639428706684  0.24713381509569238  1.0000
  C   C27       1.0  0.40913544885491265  0.3800360938152091  0.747133787344039  1.0000
  C   C28       1.0  0.09086455122496159  0.8800360571219559  0.7528661853873634  1.0000
  C   C29       1.0  0.6026432310429646  0.7711633344899802  0.30979263954241026  1.0000
  C   C30       1.0  0.8973567865211427  0.27116331985095427  0.19020740113671739  1.0000
  C   C31       1.0  0.39735676919329926  0.22883666550264398  0.6902073601494777  1.0000
  C   C32       1.0  0.10264321372297401  0.72883668014167  0.8097925993463382  1.0000
  C   C33       1.0  0.5759929728328513  0.7822411271988655  0.40827654084453985  1.0000
  C   C34       1.0  0.9240070636002817  0.2822410988135281  0.09172346808755737  1.0000
  C   C35       1.0  0.42400702741126534  0.2177588727937588  0.5917234596385158  1.0000
  C   C36       1.0  0.07599293569961599  0.7177589011790967  0.9082765313445532  1.0000
  C   C37       1.0  0.5360909391677989  0.642884024201373  0.4548987143783092  1.0000
  C   C38       1.0  0.9639090663051954  0.14288401715699475  0.04510129968983359  1.0000
  C   C39       1.0  0.4639090610763177  0.3571159757912511  0.5451012861047465  1.0000
  C   C40       1.0  0.03609093300255531  0.85711598283563  0.9548987005334446  1.0000
  C   C41       1.0  0.5118964058538056  0.6498436074591368  0.5566703767517029  1.0000
  C   C42       1.0  0.988103610121604  0.14984362019732053  0.9433296290687373  1.0000
  C   C43       1.0  0.4881035943903112  0.3501563925334873  0.4433296237313528  1.0000
  C   C44       1.0  0.01189638918614679  0.8501563797953042  0.05667037115454084  1.0000
  C   C45       1.0  0.4762010861934909  0.510886488977146  0.603331834264493  1.0000
  C   C46       1.0  0.02379891086946144  0.010886464718720729  0.8966681689933883  1.0000
  C   C47       1.0  0.5237989140427728  0.48911351101547823  0.396668165427395  1.0000
  C   C48       1.0  0.9762010884382892  0.9891135352739038  0.10333183122988984  1.0000
  N   N1        1.0  0.8025631993435098  0.5689650622416463  0.6672665519150046  1.0000
  N   N2        1.0  0.6974369015819541  0.06896449585154033  0.8327336929218405  1.0000
  N   N3        1.0  0.19743680089275398  0.4310349377509779  0.33273344777688335  1.0000
  N   N4        1.0  0.3025630977257966  0.9310355041410844  0.1672663073014378  1.0000
  N   N5        1.0  0.7589279038308734  0.1652182360298156  0.5239481031555987  1.0000
  N   N6        1.0  0.7410714558530559  0.6652139319600039  0.9760513869861065  1.0000
  N   N7        1.0  0.24107209546902444  0.8347817639628091  0.4760518962765118  1.0000
  N   N8        1.0  0.2589285434468418  0.3347860680326207  0.023948612446004117  1.0000
  N   N9        1.0  0.8979487785598713  0.6915413891291928  0.4282064535581377  1.0000
  N   N10       1.0  0.6020512773252552  0.1915412971236806  0.0717935354882999  1.0000
  N   N11       1.0  0.10205122074002641  0.30845861086343185  0.5717935458739729  1.0000
  N   N12       1.0  0.39794872198249553  0.8084587028689442  0.9282064647349785  1.0000
  O   O1        1.0  0.7511253550458936  0.32943814498089935  0.7308779563586064  1.0000
  O   O2        1.0  0.7488746542926072  0.8294379381344804  0.7691220271596536  1.0000
  O   O3        1.0  0.24887464519822314  0.6705618550117249  0.26912204412444923  1.0000
  O   O4        1.0  0.25112534594365643  0.1705620618581438  0.23087797253223438  1.0000
  O   O5        1.0  0.7533406797201784  0.06839105061110297  0.5979104200631329  1.0000
  O   O6        1.0  0.7466593333463959  0.5683854354555858  0.9020901562277069  1.0000
  O   O7        1.0  0.24665931957971945  0.9316089493815216  0.4020895793689777  1.0000
  O   O8        1.0  0.25334066689772083  0.43161456453703834  0.09790984425534868  1.0000
  O   O9        1.0  0.7395347500457018  0.12564721449481364  0.4250633125870729  1.0000
  O   O10       1.0  0.7604651996462454  0.6256421071650566  0.07493610515317206  1.0000
  O   O11       1.0  0.26046524925419595  0.874352785497811  0.5749366868450376  1.0000
  O   O12       1.0  0.23953480059001836  0.37435789282756743  0.9250638945387158  1.0000
  O   O13       1.0  0.9019156371494911  0.6268453897652542  0.3403716274179357  1.0000
  O   O14       1.0  0.5980843684454153  0.12684541986024617  0.15962832420825696  1.0000
  O   O15       1.0  0.09808436309462572  0.37315461022736995  0.6596283730651199  1.0000
  O   O16       1.0  0.4019156317908485  0.8731545801323779  0.840371675483631  1.0000
  O   O17       1.0  0.9325612796791128  0.8329938875837245  0.45702438887101904  1.0000
  O   O18       1.0  0.5674387622999539  0.33299380917403887  0.04297562916145492  1.0000
  O   O19       1.0  0.06743871962078492  0.16700611240890006  0.5429756105610914  1.0000
  O   O20       1.0  0.43256123793630974  0.6670061908185853  0.957024370530433  1.0000
