data_image0
_chemical_formula_structural       H40C72N8F16I8
_chemical_formula_sum              "H40 C72 N8 F16 I8"
_cell_length_a       8.092351077955366
_cell_length_b       14.198454485611844
_cell_length_c       16.195832084100257
_cell_angle_alpha    82.51711969866267
_cell_angle_beta     87.62295178219799
_cell_angle_gamma    74.12153801513945

_space_group_name_H-M_alt    "P 1"
_space_group_IT_number       1

loop_
  _space_group_symop_operation_xyz
  'x, y, z'

loop_
  _atom_site_type_symbol
  _atom_site_label
  _atom_site_symmetry_multiplicity
  _atom_site_fract_x
  _atom_site_fract_y
  _atom_site_fract_z
  _atom_site_occupancy
  H   H1        1.0  0.77247724732426  0.35162679141156916  0.5084860948571005  1.0000
  H   H2        1.0  0.22752275226916155  0.6483732085062806  0.49151390486303154  1.0000
  H   H3        1.0  0.6303748035197951  0.44961265357914865  0.3820201422856238  1.0000
  H   H4        1.0  0.36962519606420824  0.5503873462448982  0.6179798580572607  1.0000
  H   H5        1.0  0.7218214456029959  0.0913845105488582  0.43795723872578135  1.0000
  H   H6        1.0  0.2781785539810075  0.9086154892751886  0.5620427616171032  1.0000
  H   H7        1.0  0.567603035182406  0.1783675308724273  0.3090501134253602  1.0000
  H   H8        1.0  0.4323969652916683  0.8216324697787628  0.6909498862983052  1.0000
  H   H9        1.0  0.40398259993459723  0.3385824376271116  0.2351088440681895  1.0000
  H   H10       1.0  0.5960173996588243  0.6614175622907382  0.7648911556519425  1.0000
  H   H11       1.0  0.40407711528356105  0.5155924255713048  0.31376171052990554  1.0000
  H   H12       1.0  0.5959228843098604  0.48440757434654497  0.6862382891902263  1.0000
  H   H13       1.0  0.14572284128146049  0.6378157951449686  0.2889262783357305  1.0000
  H   H14       1.0  0.8542771595374747  0.3621842046804974  0.7110737220085468  1.0000
  H   H15       1.0  0.8943921733097411  0.7217926140036308  0.19771531416158497  1.0000
  H   H16       1.0  0.10560782716433344  0.2782073866475593  0.8022846855620804  1.0000
  H   H17       1.0  0.8874677657266499  0.6700927594327258  0.05494652220825264  1.0000
  H   H18       1.0  0.11253223509228547  0.3299072403927402  0.9450534781360246  1.0000
  H   H19       1.0  0.12454316752410098  0.5288395214091264  0.015464233643797844  1.0000
  H   H20       1.0  0.875456831705623  0.4711604791468418  0.9845357667012276  1.0000
  H   H21       1.0  0.2108494491090451  0.33209660208475833  0.13344246495212098  1.0000
  H   H22       1.0  0.7891505504843764  0.6679033978330914  0.8665575347680109  1.0000
  H   H23       1.0  0.9264228637657574  0.4477825760243893  0.1545258812007992  1.0000
  H   H24       1.0  0.073577137062596  0.5522174238948795  0.8454741185207254  1.0000
  H   H25       1.0  0.005676586706937098  0.09284782272934292  0.15323288690009756  1.0000
  H   H26       1.0  0.9943234137577193  0.9071521778280442  0.8467671134463205  1.0000
  H   H27       1.0  0.7093490601943502  0.19950675619232597  0.17139473864682295  1.0000
  H   H28       1.0  0.2906509402797241  0.8004932444588643  0.8286052610768424  1.0000
  H   H29       1.0  0.539978201066398  0.40949639464735726  0.12185273883117638  1.0000
  H   H30       1.0  0.4600217985270236  0.5905036052704925  0.8781472608889554  1.0000
  H   H31       1.0  0.6893602152278137  0.4980332926065538  0.2541690459387602  1.0000
  H   H32       1.0  0.3106397840019105  0.5019667079494143  0.7458309544062652  1.0000
  H   H33       1.0  0.5843262305794816  0.5327919102052104  0.03183140938749665  1.0000
  H   H34       1.0  0.4156737702394536  0.46720808962025545  0.9681685909567807  1.0000
  H   H35       1.0  0.5457542188016354  0.6956175846116218  0.944685213942814  1.0000
  H   H36       1.0  0.45424578201729976  0.3043824152138442  0.0553147864014632  1.0000
  H   H37       1.0  0.5265307396770251  0.8459627703481243  0.014751670469516708  1.0000
  H   H38       1.0  0.4734692611513282  0.1540372295711445  0.9852483292520079  1.0000
  H   H39       1.0  0.5448602947354794  0.8255774646945628  0.17074977035361105  1.0000
  H   H40       1.0  0.45513970484852395  0.17442253512948402  0.8292502299892736  1.0000
  C   C1        1.0  0.9575774519762458  0.9083437807161331  0.2544308275510226  1.0000
  C   C2        1.0  0.04242254761717575  0.09165621920171668  0.7455691721691093  1.0000
  C   C3        1.0  0.7866616504358289  0.964670585944374  0.2468507708273622  1.0000
  C   C4        1.0  0.2133383503831064  0.03532941388109182  0.7531492295169152  1.0000
  C   C5        1.0  0.699873034061808  0.9933710104408128  0.17099858158697312  1.0000
  C   C6        1.0  0.30012696553161333  0.006628989477036885  0.8290014181331589  1.0000
  C   C7        1.0  0.7915605764536824  0.9637457926363582  0.09964519430677739  1.0000
  C   C8        1.0  0.20843942313032096  0.03625420718768857  0.9003548060361073  1.0000
  C   C9        1.0  0.9633415836533049  0.9089585683311041  0.10364168902722966  1.0000
  C   C10       1.0  0.03665841716563014  0.09104143149436192  0.8963583113170476  1.0000
  C   C11       1.0  0.04413235989182833  0.8826580551923319  0.18094767639397924  1.0000
  C   C12       1.0  0.9558676409365252  0.11734194472693708  0.8190523233275454  1.0000
  C   C13       1.0  0.2185281154894146  0.2061530158986197  0.43848048352082164  1.0000
  C   C14       1.0  0.7814718853295205  0.7938469839268463  0.5615195168234558  1.0000
  C   C15       1.0  0.29816380866808634  0.21709085615853915  0.5100921186464409  1.0000
  C   C16       1.0  0.7018361909253351  0.7829091437593106  0.4899078810736911  1.0000
  C   C17       1.0  0.29168678501715795  0.3089717944216401  0.534009665842029  1.0000
  C   C18       1.0  0.7083132154474981  0.6910282061357472  0.4659903345043891  1.0000
  C   C19       1.0  0.20852827283032896  0.39236993225461597  0.481128589495911  1.0000
  C   C20       1.0  0.7914717267536745  0.6076300675694307  0.5188714108469736  1.0000
  C   C21       1.0  0.12833646735876916  0.38505928862358296  0.40875570463643884  1.0000
  C   C22       1.0  0.8716635334695841  0.614940711295686  0.5912442950850857  1.0000
  C   C23       1.0  0.13222835562845664  0.2919343460922513  0.3889784570053884  1.0000
  C   C24       1.0  0.8677716439649646  0.7080656538255986  0.6110215427147435  1.0000
  C   C25       1.0  0.7272936444616288  0.31551733691162476  0.46199715560005244  1.0000
  C   C26       1.0  0.27270635635730645  0.6844826629138412  0.5380028447442248  1.0000
  C   C27       1.0  0.6461369418136548  0.37030430809401915  0.39019800904539537  1.0000
  C   C28       1.0  0.35386305777034854  0.6296956917300278  0.6098019912974892  1.0000
  C   C29       1.0  0.6988023970453564  0.17100454252189007  0.4230605323790093  1.0000
  C   C30       1.0  0.301197602548065  0.8289954573959596  0.5769394673411226  1.0000
  C   C31       1.0  0.6137077258166471  0.22043115145264586  0.3502939103943511  1.0000
  C   C32       1.0  0.38629227377677444  0.7795688484652038  0.6497060893257809  1.0000
  C   C33       1.0  0.586153753930372  0.3227807952442196  0.33174112309380666  1.0000
  C   C34       1.0  0.4138462456536315  0.6772192045798272  0.668258877249078  1.0000
  C   C35       1.0  0.4964562056869238  0.376400479514512  0.25250272480331837  1.0000
  C   C36       1.0  0.5035437951414296  0.623599520404757  0.7474972749182063  1.0000
  C   C37       1.0  0.4235609093012613  0.490013135131826  0.252172183267443  1.0000
  C   C38       1.0  0.5764390902921601  0.5099868647860238  0.7478278164526889  1.0000
  C   C39       1.0  0.26605291016315563  0.5379674025273238  0.20030014494895904  1.0000
  C   C40       1.0  0.7339470894208477  0.46203259729672314  0.7996998553939255  1.0000
  C   C41       1.0  0.13680076581273837  0.6152537498525572  0.22785873485176905  1.0000
  C   C42       1.0  0.8631992337806831  0.38474625006529256  0.7721412648683629  1.0000
  C   C43       1.0  0.997463012070202  0.6628354469183652  0.1764130669549066  1.0000
  C   C44       1.0  0.0025369887487333223  0.3371645529071007  0.8235869333893706  1.0000
  C   C45       1.0  0.9921897816976966  0.6336270186227033  0.09785690063252926  1.0000
  C   C46       1.0  0.007810219121238666  0.36637298120276257  0.902143099711748  1.0000
  C   C47       1.0  0.12492035421694013  0.5551354161357097  0.07589308011965273  1.0000
  C   C48       1.0  0.8750796453764814  0.44486458378214006  0.9241069196004791  1.0000
  C   C49       1.0  0.09677781176943759  0.304826348053911  0.14173883642574145  1.0000
  C   C50       1.0  0.9032221878239839  0.6951736518639386  0.8582611632943904  1.0000
  C   C51       1.0  0.9365270414393712  0.3698868406839579  0.15306077745078536  1.0000
  C   C52       1.0  0.06347295938898209  0.630113159235311  0.8469392222707393  1.0000
  C   C53       1.0  0.982033534829582  0.1722828735204311  0.15294204091403796  1.0000
  C   C54       1.0  0.017966465989353426  0.8277171263050348  0.8470579594302392  1.0000
  C   C55       1.0  0.8170735988987518  0.23216441586030712  0.1634989897302974  1.0000
  C   C56       1.0  0.1829264019201834  0.7678355839651589  0.8365010106139799  1.0000
  C   C57       1.0  0.7921573912366842  0.33357227988308136  0.16523876696223386  1.0000
  C   C58       1.0  0.20784260835673726  0.6664277200347685  0.8347612327578982  1.0000
  C   C59       1.0  0.6177325241254077  0.3999765454384526  0.17800993781776575  1.0000
  C   C60       1.0  0.38226747545859563  0.6000234543855943  0.821990062525119  1.0000
  C   C61       1.0  0.5940382148485822  0.5022315020885505  0.20633989043714945  1.0000
  C   C62       1.0  0.40596178438114217  0.4977684984674176  0.7936601099078759  1.0000
  C   C63       1.0  0.581517874640225  0.5941487381554644  0.1473740600303703  1.0000
  C   C64       1.0  0.4184821261881284  0.40585126176380437  0.8526259396911542  1.0000
  C   C65       1.0  0.5740099386461925  0.5991019956590606  0.06080237951994472  1.0000
  C   C66       1.0  0.4259900609378109  0.4008980041649861  0.9391976208229399  1.0000
  C   C67       1.0  0.5529858798319557  0.690105322522983  0.012251418989641966  1.0000
  C   C68       1.0  0.4470141197614659  0.3098946773948668  0.9877485807304899  1.0000
  C   C69       1.0  0.542371029691357  0.7738547828573338  0.05072667944602057  1.0000
  C   C70       1.0  0.45762896990206453  0.22614521706051602  0.9492733202741113  1.0000
  C   C71       1.0  0.5527378170859444  0.7626566061363912  0.1371208143433593  1.0000
  C   C72       1.0  0.4472621837329909  0.23734339368907462  0.8628791860009181  1.0000
  N   N1        1.0  0.7546431798710654  0.21753953640278798  0.47864758655471373  1.0000
  N   N2        1.0  0.24535682094786967  0.7824604634226779  0.5213524137895635  1.0000
  N   N3        1.0  0.2580656012319709  0.5073480698949839  0.12547937355684088  1.0000
  N   N4        1.0  0.7419343983520325  0.49265192992906287  0.8745206267860437  1.0000
  N   N5        1.0  0.12055804831874983  0.2074682326662562  0.14272602214203195  1.0000
  N   N6        1.0  0.8794419509109743  0.7925317678897119  0.8572739782029934  1.0000
  N   N7        1.0  0.570454518854249  0.675687140737129  0.18401270737857367  1.0000
  N   N8        1.0  0.42954548073917237  0.3243128591807209  0.8159872923415582  1.0000
  F   F1        1.0  0.6998388852168466  0.9935683351664519  0.31670894645965375  1.0000
  F   F2        1.0  0.30016111437657483  0.006431664751397877  0.6832910532604781  1.0000
  F   F3        1.0  0.21017113381722954  0.8291067969258773  0.1832230423500276  1.0000
  F   F4        1.0  0.7898288666568448  0.17089320372531278  0.8167769573736378  1.0000
  F   F5        1.0  0.04971634313034938  0.8805173505529263  0.03378939501746882  1.0000
  F   F6        1.0  0.950283656463072  0.1194826493649234  0.9662106047026631  1.0000
  F   F7        1.0  0.7156627721105102  0.9876174643320365  0.023927563802016473  1.0000
  F   F8        1.0  0.2843372287178431  0.01238253558723238  0.9760724359195081  1.0000
  F   F9        1.0  0.3831170044956732  0.1350294664687383  0.5592134697072321  1.0000
  F   F10       1.0  0.6168829950883301  0.8649705333553085  0.44078653063565243  1.0000
  F   F11       1.0  0.04858094439971134  0.28670893339380715  0.3200788792488751  1.0000
  F   F12       1.0  0.9514190551937102  0.7132910665240426  0.6799211204712567  1.0000
  F   F13       1.0  0.04515381056503375  0.46698512829000083  0.3587698981778204  1.0000
  F   F14       1.0  0.9548461890283876  0.533014871627849  0.6412301015423115  1.0000
  F   F15       1.0  0.20126274203993974  0.4841022768788884  0.4994036051376211  1.0000
  F   F16       1.0  0.7987372575440637  0.5158977229451586  0.5005963952052634  1.0000
  I   I1        1.0  0.08293685305321405  0.8574747299749509  0.3716981501203844  1.0000
  I   I2        1.0  0.9170631465307894  0.142525269849096  0.6283018502225002  1.0000
  I   I3        1.0  0.4403881086525044  0.08272342692248398  0.1621332975313183  1.0000
  I   I4        1.0  0.5596118918121517  0.9172765736349033  0.8378667028150998  1.0000
  I   I5        1.0  0.21282665358740516  0.06846547202414686  0.40726968603027275  1.0000
  I   I6        1.0  0.7871733460060163  0.931534527893703  0.5927303136898591  1.0000
  I   I7        1.0  0.37500139384975273  0.3198733153158819  0.6540837045682274  1.0000
  I   I8        1.0  0.6249986069691825  0.680126684509584  0.3459162957760499  1.0000
