data_image0
_chemical_formula_structural       H20C36N4F8I4
_chemical_formula_sum              "H20 C36 N4 F8 I4"
_cell_length_a       9.070018984500868
_cell_length_b       10.608772395001134
_cell_length_c       10.783150123441244
_cell_angle_alpha    61.23161222245707
_cell_angle_beta     77.00774891679143
_cell_angle_gamma    77.26902290926566

_space_group_name_H-M_alt    "P 1"
_space_group_IT_number       1

loop_
  _space_group_symop_operation_xyz
  'x, y, z'

loop_
  _atom_site_type_symbol
  _atom_site_label
  _atom_site_symmetry_multiplicity
  _atom_site_fract_x
  _atom_site_fract_y
  _atom_site_fract_z
  _atom_site_occupancy
  H   H1        1.0  0.46684372602673185  0.5497931486657959  0.2019524447407174  1.0000
  H   H2        1.0  0.5331562740627493  0.45020685162073026  0.7980475549981233  1.0000
  H   H3        1.0  0.3437622116654077  0.4687486015781941  0.07397091923139867  1.0000
  H   H4        1.0  0.6562377884240737  0.5312513987083322  0.926029080507442  1.0000
  H   H5        1.0  0.910786204593851  0.562449227302197  0.3011510705172165  1.0000
  H   H6        1.0  0.08921379574717508  0.43755077201615095  0.6988489292255579  1.0000
  H   H7        1.0  0.05242149990700889  0.6470136102445369  0.41300818300250364  1.0000
  H   H8        1.0  0.9475785001824726  0.3529863900419893  0.586991816736337  1.0000
  H   H9        1.0  0.9855310332974696  0.3573196468047375  0.19107002024360428  1.0000
  H   H10       1.0  0.014468966792011668  0.6426803534817886  0.8089299794952364  1.0000
  H   H11       1.0  0.21255340885467344  0.48749207168384207  0.9236402167511415  1.0000
  H   H12       1.0  0.7874465913276834  0.5125079271453431  0.07635978405993411  1.0000
  H   H13       1.0  0.3589113036940271  0.3128733001384002  0.8590513051235732  1.0000
  H   H14       1.0  0.6410886966469991  0.687126699179948  0.14094869461920106  1.0000
  H   H15       1.0  0.4136557368133681  0.057180184027466795  0.8983693958084625  1.0000
  H   H16       1.0  0.5863442631174439  0.9428198157698962  0.10163060499867943  1.0000
  H   H17       1.0  0.220076739314326  0.8866432075821626  0.060026838545882116  1.0000
  H   H18       1.0  0.779923260616486  0.11335679221520033  0.9399731622612598  1.0000
  H   H19       1.0  0.9786414874811872  0.9856943824031279  0.16665516203840292  1.0000
  H   H20       1.0  0.02135851260829422  0.01430561788339838  0.8333448377004378  1.0000
  C   C1        1.0  0.5134383957813552  0.1849512167393715  0.35470668821929585  1.0000
  C   C2        1.0  0.4865616043081262  0.8150487835471545  0.6452933115195449  1.0000
  C   C3        1.0  0.4147530882709242  0.135589360674689  0.3102257646951687  1.0000
  C   C4        1.0  0.5852469118185573  0.8644106396118371  0.689774235043672  1.0000
  C   C5        1.0  0.2638822622530208  0.12189374875233855  0.3745643501184805  1.0000
  C   C6        1.0  0.7361177378364606  0.8781062515341875  0.6254356496203601  1.0000
  C   C7        1.0  0.20923678956883598  0.1623994383945513  0.48323066016456095  1.0000
  C   C8        1.0  0.790763210361976  0.8376005614028119  0.5167693406425811  1.0000
  C   C9        1.0  0.30741575284234396  0.2107460226611984  0.5287132501364089  1.0000
  C   C10       1.0  0.6925842470884679  0.7892539771361649  0.47128675067073295  1.0000
  C   C11       1.0  0.46002540587598567  0.22126962557458865  0.4678797153603658  1.0000
  C   C12       1.0  0.5399745942134957  0.7787303747119374  0.532120284378475  1.0000
  C   C13       1.0  0.3429288081626562  0.5533139240300232  0.21954147298673882  1.0000
  C   C14       1.0  0.6570711919268252  0.446686076256503  0.7804585267521019  1.0000
  C   C15       1.0  0.2733405085427905  0.5068027703198523  0.1486323850683406  1.0000
  C   C16       1.0  0.7266594915466908  0.4931972299666737  0.8513676146705  1.0000
  C   C17       1.0  0.1146042291830832  0.5091780054581383  0.17501117412365946  1.0000
  C   C18       1.0  0.8853957698044407  0.49082199482537286  0.82498882561595  1.0000
  C   C19       1.0  0.03434148934713513  0.5587141582402416  0.2741569715247254  1.0000
  C   C20       1.0  0.9656585107423462  0.4412858420462845  0.7258430282141153  1.0000
  C   C21       1.0  0.11294846488769407  0.6054576653652551  0.3380322425174164  1.0000
  C   C22       1.0  0.8870515354533322  0.39454233395309307  0.661967757225358  1.0000
  C   C23       1.0  0.029509719510272876  0.45805573435199665  0.1072920136240695  1.0000
  C   C24       1.0  0.9704902804205391  0.5419442654453667  0.8927079871830723  1.0000
  C   C25       1.0  0.10760866134670348  0.43669319098820775  0.9740129912371382  1.0000
  C   C26       1.0  0.8923913389943229  0.5633068083301405  0.025987008505635876  1.0000
  C   C27       1.0  0.14034653496803248  0.28390486072327  0.9935638968955383  1.0000
  C   C28       1.0  0.8596534640194916  0.7160951395602411  0.006436102844071277  1.0000
  C   C29       1.0  0.2771836239555799  0.23713442001211008  0.9281348827294542  1.0000
  C   C30       1.0  0.7228163761339016  0.7628655802744161  0.0718651170093863  1.0000
  C   C31       1.0  0.3080204538674772  0.09381846717199005  0.950197546952779  1.0000
  C   C32       1.0  0.6919795462220042  0.9061815331145361  0.04980245278606156  1.0000
  C   C33       1.0  0.20107761631171558  0.9999034851194698  0.0383924750419773  1.0000
  C   C34       1.0  0.7989223837777659  9.651516705622617e-05  0.9616075246968635  1.0000
  C   C35       1.0  0.0661600155484408  0.055244604531540446  0.09783342962544406  1.0000
  C   C36       1.0  0.933839983690628  0.9447553947837928  0.9021665701180991  1.0000
  N   N1        1.0  0.26521106424467233  0.6035899896445119  0.31170787871362376  1.0000
  N   N2        1.0  0.734788935844809  0.39641001064201414  0.688292121025217  1.0000
  N   N3        1.0  0.035212609272789575  0.19336282910707459  0.07584391436144004  1.0000
  N   N4        1.0  0.9647873906580223  0.8066371706902886  0.9241560864457019  1.0000
  F   F1        1.0  0.4626473424825471  0.0999419448841457  0.20111177770612104  1.0000
  F   F2        1.0  0.537352657448265  0.9000580549132176  0.7988882231010208  1.0000
  F   F3        1.0  0.17061968420770748  0.07074720850553977  0.3336161507611331  1.0000
  F   F4        1.0  0.8293803158817737  0.9292527917809864  0.6663838489777075  1.0000
  F   F5        1.0  0.06217256046788666  0.15276075842458783  0.5441265062631983  1.0000
  F   F6        1.0  0.9378274396215945  0.8472392418619383  0.4558734934756425  1.0000
  F   F7        1.0  0.24820895294072587  0.24665415085599757  0.636639451770355  1.0000
  F   F8        1.0  0.7517910471487553  0.7533458494305286  0.36336054796848566  1.0000
  I   I1        1.0  0.5928179909548743  0.2929359059397915  0.5553205928419537  1.0000
  I   I2        1.0  0.40718200897593776  0.7070640938575715  0.44467940796518846  1.0000
  I   I3        1.0  0.7365506907810679  0.20386835506188747  0.24041093733680582  1.0000
  I   I4        1.0  0.26344930955995827  0.7961316442564609  0.7595890624059684  1.0000
