data_image0
_chemical_formula_structural       H112C112N12Cl4
_chemical_formula_sum              "H112 C112 N12 Cl4"
_cell_length_a       17.714258353364958
_cell_length_b       5.338309125818715
_cell_length_c       25.085937215527498
_cell_angle_alpha    90.0
_cell_angle_beta     97.59546990869556
_cell_angle_gamma    90.0

_space_group_name_H-M_alt    "P 1"
_space_group_IT_number       1

loop_
  _space_group_symop_operation_xyz
  'x, y, z'

loop_
  _atom_site_type_symbol
  _atom_site_label
  _atom_site_symmetry_multiplicity
  _atom_site_fract_x
  _atom_site_fract_y
  _atom_site_fract_z
  _atom_site_occupancy
  H   H1        1.0  0.5260937745472669  0.21183576359987713  0.2986752233031474  1.0000
  H   H2        1.0  0.47390622552131717  0.711835763054881  0.7013247767556345  1.0000
  H   H3        1.0  0.5272465234054794  0.2919258688978593  0.20283951117072935  1.0000
  H   H4        1.0  0.47275347666310474  0.7919258683528632  0.7971604888880526  1.0000
  H   H5        1.0  0.8570535558755362  0.444453663899825  0.5434775117749928  1.0000
  H   H6        1.0  0.14294644419304783  0.9444536652280813  0.456522488283789  1.0000
  H   H7        1.0  0.7744679833401007  0.02496469703401843  0.1919189274614309  1.0000
  H   H8        1.0  0.2255320167284833  0.5249646964890223  0.808081072597351  1.0000
  H   H9        1.0  0.9059666463529962  0.34445242429043327  0.20102635831870344  1.0000
  H   H10       1.0  0.0940333537155878  0.8444524237454373  0.7989736417400783  1.0000
  H   H11       1.0  0.8687417405576735  0.5392854876231018  0.11438207944490716  1.0000
  H   H12       1.0  0.13125825951091058  0.03928548629484554  0.8856179206138746  1.0000
  H   H13       1.0  0.9248237835092689  0.09638652574678072  0.38621288562326334  1.0000
  H   H14       1.0  0.07517621655931518  0.5963865252017846  0.6137871144355185  1.0000
  H   H15       1.0  0.7580966237593294  0.9851133282195367  0.28848238644790136  1.0000
  H   H16       1.0  0.2419033763092546  0.4851133287645328  0.7115176136108804  1.0000
  H   H17       1.0  0.9360659515751193  0.12508055908013657  0.2884716717051201  1.0000
  H   H18       1.0  0.0639340484934647  0.6250805585351406  0.7115283283536616  1.0000
  H   H19       1.0  0.6289425899928924  0.4837123570666166  0.015990902655494483  1.0000
  H   H20       1.0  0.37105741007569154  0.9837123565216204  0.9840090974032872  1.0000
  H   H21       1.0  0.8277777577185363  0.5894887511815601  0.4619980497138865  1.0000
  H   H22       1.0  0.17222224235004763  0.08948874985330382  0.5380019503448953  1.0000
  H   H23       1.0  0.6196168955297404  0.371368302823032  0.511963346224815  1.0000
  H   H24       1.0  0.3803831045388435  0.871368302278036  0.4880366538339669  1.0000
  H   H25       1.0  0.017699041888940045  0.18821581259513612  0.6431439914675704  1.0000
  H   H26       1.0  0.9823009581796439  0.6882158120501399  0.3568560085912115  1.0000
  H   H27       1.0  0.9391278925896157  0.39394942863625715  0.6368063655029917  1.0000
  H   H28       1.0  0.060872107478968304  0.893949428091261  0.3631936345557901  1.0000
  H   H29       1.0  0.3053788775270999  0.03966900473706127  0.12821548430038146  1.0000
  H   H30       1.0  0.6946211225414841  0.5396690041920652  0.8717845157584005  1.0000
  H   H31       1.0  0.8583059802860465  0.7349253064093222  0.036423432679181175  1.0000
  H   H32       1.0  0.14169401978253737  0.23492530695431826  0.9635765673796006  1.0000
  H   H33       1.0  0.6275581910426826  0.7059929167031879  0.41562694797171024  1.0000
  H   H34       1.0  0.37244180902590135  0.205992917248184  0.5843730520870716  1.0000
  H   H35       1.0  0.5163426908027732  0.22137780187443803  0.029682539557290766  1.0000
  H   H36       1.0  0.48365730926581074  0.721377801329442  0.970317460501491  1.0000
  H   H37       1.0  0.40484058913119053  0.14542142122220045  0.07712439676751327  1.0000
  H   H38       1.0  0.5951594109373934  0.6454214206772044  0.9228756032912685  1.0000
  H   H39       1.0  0.5748914800440025  0.0008115359934941167  0.1366806707660617  1.0000
  H   H40       1.0  0.4251085200245814  0.5008115373217504  0.8633193292927202  1.0000
  H   H41       1.0  0.9969275349954906  0.3736160857290397  0.5501848426480587  1.0000
  H   H42       1.0  0.0030724650730934405  0.8736160851840435  0.4498151574107231  1.0000
  H   H43       1.0  0.9827601322983456  0.046399682776334515  0.5480266805635872  1.0000
  H   H44       1.0  0.017239867770238334  0.5463996822313384  0.45197331949519476  1.0000
  H   H45       1.0  0.9076311590064671  0.989230899810453  0.6807496309362263  1.0000
  H   H46       1.0  0.09236884106211704  0.489230900355449  0.31925036912255556  1.0000
  H   H47       1.0  0.9309295819751539  0.8221675321821831  0.6246137296725173  1.0000
  H   H48       1.0  0.06907041801775667  0.3221675327271792  0.3753862699841064  1.0000
  H   H49       1.0  0.49107406013189425  0.4727055853313831  0.4642579266477082  1.0000
  H   H50       1.0  0.5089259399366897  0.9727055847863871  0.5357420734110736  1.0000
  H   H51       1.0  0.21164545367272838  0.9263761845641642  0.1702001189153241  1.0000
  H   H52       1.0  0.7883545463201821  0.4263761851091603  0.8297998807412995  1.0000
  H   H53       1.0  0.6785447659272383  0.09435844536686461  0.08911691620494089  1.0000
  H   H54       1.0  0.32145523406567206  0.5943584448218686  0.9108830834516828  1.0000
  H   H55       1.0  0.7321726244806939  0.7934349398228981  0.48170274605243774  1.0000
  H   H56       1.0  0.2678273755878901  0.2934349403678942  0.5182972540063441  1.0000
  H   H57       1.0  0.1876720267171966  0.273182810442125  0.26338776568538036  1.0000
  H   H58       1.0  0.8123279733513874  0.7731828098971288  0.7366122343734015  1.0000
  H   H59       1.0  0.7917318099657119  0.7732195762205797  0.37640011743120416  1.0000
  H   H60       1.0  0.20826819010287204  0.27321957489232346  0.6235998826275777  1.0000
  H   H61       1.0  0.3510392965409912  0.6576399056811046  0.19939318290501912  1.0000
  H   H62       1.0  0.6489607029631288  0.15763990622610072  0.800606817154045  1.0000
  H   H63       1.0  0.790015022025529  0.8799046213494819  0.6175675410880874  1.0000
  H   H64       1.0  0.209984978043055  0.3799046200212256  0.38243245897069444  1.0000
  H   H65       1.0  0.8013944015636042  0.2076221878271271  0.6237404733690348  1.0000
  H   H66       1.0  0.19860559850497983  0.707622187282131  0.37625952668974705  1.0000
  H   H67       1.0  0.5215635832445947  0.6087311812430163  0.34472123053231124  1.0000
  H   H68       1.0  0.4784364168239892  0.10873118178801236  0.6552787695264705  1.0000
  H   H69       1.0  0.9715894069350907  0.22741468906857507  0.9737966531171575  1.0000
  H   H70       1.0  0.028410593057819903  0.727414688523579  0.026203346539466266  1.0000
  H   H71       1.0  0.9314199833463426  0.9267588281975426  0.9635835662361147  1.0000
  H   H72       1.0  0.06858001664656782  0.4267588287425386  0.03641643342050906  1.0000
  H   H73       1.0  0.38491415591299016  0.37650436170493407  0.39219492622533725  1.0000
  H   H74       1.0  0.6150858441555938  0.8765043630331903  0.6078050738334445  1.0000
  H   H75       1.0  0.4636438369591072  0.9185785731821864  0.18605104276148143  1.0000
  H   H76       1.0  0.5363561631094769  0.4185785718539301  0.8139489572973004  1.0000
  H   H77       1.0  0.7679240343546074  0.21954651414463638  0.04172834395752949  1.0000
  H   H78       1.0  0.23207596571397654  0.7195465135996403  0.9582716561012522  1.0000
  H   H79       1.0  0.8412891083901921  0.8777373564483085  0.5315063343038388  1.0000
  H   H80       1.0  0.15871089111392792  0.37773735699330463  0.46849366575522544  1.0000
  H   H81       1.0  0.3955994137058408  0.7197564002835307  0.29362885480077366  1.0000
  H   H82       1.0  0.6044005863627432  0.2197564008285268  0.7063711452580081  1.0000
  H   H83       1.0  0.2858698912587234  0.30850110796973107  0.3218472870737552  1.0000
  H   H84       1.0  0.7141301088098605  0.8085011092979874  0.6781527129850266  1.0000
  H   H85       1.0  0.971519944196468  0.0070500113637064895  0.061923163227135605  1.0000
  H   H86       1.0  0.028480055872115998  0.5070500108187104  0.9380768368316461  1.0000
  H   H87       1.0  0.912890470051257  0.27541434101093093  0.05868757565971207  1.0000
  H   H88       1.0  0.08710952945286296  0.7754143404659348  0.9413124243993521  1.0000
  H   H89       1.0  0.8421080815625286  0.4185195288137893  0.9659404966902444  1.0000
  H   H90       1.0  0.1578919185060554  0.9185195282687932  0.03405950336853731  1.0000
  H   H91       1.0  0.8502582440532057  0.23505182828983504  0.908318466627639  1.0000
  H   H92       1.0  0.14974175601537829  0.7350518277448389  0.09168153343114277  1.0000
  H   H93       1.0  0.12254582739377708  0.21901027693309033  0.11620321181669328  1.0000
  H   H94       1.0  0.8774541720346694  0.7190102763880942  0.8837967878402126  1.0000
  H   H95       1.0  0.11111236619230248  0.39262539328472323  0.17461138442015942  1.0000
  H   H96       1.0  0.8888876338762816  0.8926253946129795  0.8253886156386224  1.0000
  H   H97       1.0  0.13848230736199296  0.8871780555184042  0.302671285783482  1.0000
  H   H98       1.0  0.8615176927065911  0.38717805606340033  0.6973287142752997  1.0000
  H   H99       1.0  0.15123991995665959  0.7161208371225039  0.24411443143506834  1.0000
  H   H100      1.0  0.8487600800362508  0.21612083766749993  0.7558855682215554  1.0000
  H   H101      1.0  0.7828558042458175  0.881714177479021  0.9447618611485049  1.0000
  H   H102      1.0  0.2171441958227666  0.3817141780240171  0.05523813891027693  1.0000
  H   H103      1.0  0.7263704294976525  0.15349380874872667  0.9439415922814787  1.0000
  H   H104      1.0  0.2736295700064675  0.6534938082037306  0.056058407777585514  1.0000
  H   H105      1.0  0.015178139551524287  0.8533306375923603  0.24064085813058786  1.0000
  H   H106      1.0  0.9848218599525956  0.3533306362641041  0.7593591419284763  1.0000
  H   H107      1.0  0.04493108349746301  0.16759497603331233  0.25063420680197046  1.0000
  H   H108      1.0  0.955068916006657  0.6675949754883163  0.7493657932570937  1.0000
  H   H109      1.0  0.0020318545836909042  0.09763867878671446  0.1538566699599763  1.0000
  H   H110      1.0  0.9979681454848931  0.5976386801149708  0.8461433300988056  1.0000
  H   H111      1.0  0.06486895463693337  0.842331177160965  0.15275648200694691  1.0000
  H   H112      1.0  0.9351310454316505  0.34233117770596105  0.8472435180518348  1.0000
  C   C1        1.0  0.5784505847633288  0.2677437436298323  0.28349901298368385  1.0000
  C   C2        1.0  0.4215494153052552  0.7677437430848362  0.7165009870750979  1.0000
  C   C3        1.0  0.5793915568913536  0.30775974775496584  0.23101085087268397  1.0000
  C   C4        1.0  0.4206084431772303  0.8077597490832221  0.7689891491860978  1.0000
  C   C5        1.0  0.8794358775380908  0.2606244425357482  0.5320583205909033  1.0000
  C   C6        1.0  0.120564122530493  0.7606244438640045  0.46794167946787846  1.0000
  C   C7        1.0  0.8574047193017367  0.43357451309922523  0.3870895340678055  1.0000
  C   C8        1.0  0.14259528076684735  0.9335745125542291  0.6129104659909763  1.0000
  C   C9        1.0  0.8004452625782614  0.87042527708385  0.2161151141429792  1.0000
  C   C10       1.0  0.19955473749032251  0.3704252776288461  0.7838848859158026  1.0000
  C   C11       1.0  0.8754525492845544  0.48783488902969857  0.22070356721080858  1.0000
  C   C12       1.0  0.12454745078402957  0.9878348884847025  0.7792964328479732  1.0000
  C   C13       1.0  0.6075341516008465  0.7598323559761844  0.0752080445984875  1.0000
  C   C14       1.0  0.3924658484677376  0.25983235652118053  0.9247919554602945  1.0000
  C   C15       1.0  0.8534709673592232  0.7138902375601052  0.13433300200576767  1.0000
  C   C16       1.0  0.14652903270936082  0.2138902381051013  0.8656669980530142  1.0000
  C   C17       1.0  0.843326636582055  0.6901736791862806  0.19111137813703274  1.0000
  C   C18       1.0  0.15667336348652897  0.19017367785802436  0.8088886219217492  1.0000
  C   C19       1.0  0.8982097143525216  0.2487854428618005  0.36168263975336284  1.0000
  C   C20       1.0  0.1017902857160624  0.7487854423168043  0.638317360305419  1.0000
  C   C21       1.0  0.7915965168359359  0.8481895021966482  0.26949024991193304  1.0000
  C   C22       1.0  0.20840348323264818  0.34818950274164423  0.7305097501468488  1.0000
  C   C23       1.0  0.9043681220109504  0.26551425865256906  0.3078583853618537  1.0000
  C   C24       1.0  0.09563187805763346  0.7655142599808252  0.6921416146969281  1.0000
  C   C25       1.0  0.5912533053947774  0.5356511327098268  0.04524068973022667  1.0000
  C   C26       1.0  0.40874669467380653  0.03565113325482287  0.9547593103285552  1.0000
  C   C27       1.0  0.8545090270917771  0.42557084396111633  0.44503750298663514  1.0000
  C   C28       1.0  0.1454909729768069  0.9255708434161204  0.5549624970721467  1.0000
  C   C29       1.0  0.5921515933589933  0.25038252909248826  0.48009715927430796  1.0000
  C   C30       1.0  0.40784840670959066  0.7503825285474922  0.5199028407844739  1.0000
  C   C31       1.0  0.9595587249136119  0.21356461252609674  0.6226612454545136  1.0000
  C   C32       1.0  0.04044127515497204  0.7135646119811007  0.3773387546042683  1.0000
  C   C33       1.0  0.3714784596456247  0.38539897774924525  0.13876679018605004  1.0000
  C   C34       1.0  0.6285215404229593  0.8853989772042492  0.8612332098727318  1.0000
  C   C35       1.0  0.49800326772734504  0.6848582526474235  0.12272134605971063  1.0000
  C   C36       1.0  0.5019967322655654  0.18485825319241958  0.8772786535969129  1.0000
  C   C37       1.0  0.30733397529631984  0.22582280485960346  0.14776191281328566  1.0000
  C   C38       1.0  0.6926660247722642  0.7258228061878597  0.8522380872454963  1.0000
  C   C39       1.0  0.4861010195777997  0.14952429902185221  0.411551326346583  1.0000
  C   C40       1.0  0.5138989804907842  0.6495242984768561  0.5884486737121989  1.0000
  C   C41       1.0  0.8268560535640792  0.6494308943692543  0.3012037609847961  1.0000
  C   C42       1.0  0.17314394642883132  0.14943089491425032  0.6987962386718276  1.0000
  C   C43       1.0  0.8511978641956768  0.926484381745404  0.05229543501911586  1.0000
  C   C44       1.0  0.14880213587290725  0.42648438229040003  0.9477045650396659  1.0000
  C   C45       1.0  0.5978018095162022  0.8741069428579327  0.4262983803943086  1.0000
  C   C46       1.0  0.40219819055238176  0.37410694340292877  0.5737016196644732  1.0000
  C   C47       1.0  0.529411784365829  0.39189589075719716  0.05294571670655204  1.0000
  C   C48       1.0  0.4705882151382909  0.8918958902122012  0.9470542833525122  1.0000
  C   C49       1.0  0.4175640752492507  0.3157289003456704  0.10061622107209817  1.0000
  C   C50       1.0  0.5824359248193333  0.8157288998006744  0.8993837789866836  1.0000
  C   C51       1.0  0.5616744853569967  0.8300089964011703  0.11343311850693266  1.0000
  C   C52       1.0  0.43832551407144965  0.3300089969461663  0.8865668811499734  1.0000
  C   C53       1.0  0.9598633786880888  0.22314848801816153  0.5619055644933226  1.0000
  C   C54       1.0  0.04013662130482163  0.7231484874731655  0.4380944351633011  1.0000
  C   C55       1.0  0.8695203912290528  0.465238042882933  0.2761238454059625  1.0000
  C   C56       1.0  0.13047960883953114  0.965238042337937  0.7238761546528193  1.0000
  C   C57       1.0  0.9078824750590924  0.001559289618456366  0.6370319273908747  1.0000
  C   C58       1.0  0.09211752493381808  0.5015592890734604  0.3629680722657489  1.0000
  C   C59       1.0  0.5211908720550812  0.3059056550513175  0.45362513067555044  1.0000
  C   C60       1.0  0.4788091280135029  0.8059056545063215  0.5463748693832314  1.0000
  C   C61       1.0  0.3825713540298808  0.056178979697809356  0.33981064813108436  1.0000
  C   C62       1.0  0.6174286460387032  0.5561789810260657  0.6601893519276975  1.0000
  C   C63       1.0  0.1996106005284617  0.1135585380524452  0.18637807592446742  1.0000
  C   C64       1.0  0.8003893995401223  0.6135585375074492  0.8136219241343144  1.0000
  C   C65       1.0  0.48102150015717454  0.4618588286832995  0.09143109400957602  1.0000
  C   C66       1.0  0.5189784999114095  0.9618588281383034  0.9085689060492058  1.0000
  C   C67       1.0  0.6710868452072165  0.9201025819662885  0.06519931523829439  1.0000
  C   C68       1.0  0.3289131548613674  0.4201025825112846  0.9348006848204875  1.0000
  C   C69       1.0  0.7086906057395086  0.9760165020793772  0.49248802954877874  1.0000
  C   C70       1.0  0.29130939432907543  0.4760165026243733  0.5075119705100031  1.0000
  C   C71       1.0  0.525458676703681  0.9289089359806395  0.3977761292124559  1.0000
  C   C72       1.0  0.4745413233649029  0.4289089365256355  0.602223870846326  1.0000
  C   C73       1.0  0.19992465632794393  0.08532777313268476  0.24755091479111624  1.0000
  C   C74       1.0  0.80007534374064  0.5853277725876886  0.7524490852676656  1.0000
  C   C75       1.0  0.8223691820210087  0.629441789676177  0.3568986893833826  1.0000
  C   C76       1.0  0.17763081740743777  0.12944178834792078  0.6431013102735235  1.0000
  C   C77       1.0  0.6317023787594007  0.03231690895636203  0.46638307735476886  1.0000
  C   C78       1.0  0.3682976213091833  0.5323169102846182  0.533616922704013  1.0000
  C   C79       1.0  0.3882665397478719  0.6068627787648307  0.16966861576640585  1.0000
  C   C80       1.0  0.6117334597562482  0.1068627774365745  0.8303313842926584  1.0000
  C   C81       1.0  0.8267642694811667  0.036900682474020056  0.6088804963089096  1.0000
  C   C82       1.0  0.1732357305874173  0.536900681929024  0.39111950374987225  1.0000
  C   C83       1.0  0.49118670756382043  0.77564880047387  0.3549109760059187  1.0000
  C   C84       1.0  0.5088132919402995  0.2756487991456138  0.6450890240531454  1.0000
  C   C85       1.0  0.9222758654667227  0.11304436962658075  0.9806750981255334  1.0000
  C   C86       1.0  0.07772413460186128  0.6130443690815847  0.019324901933248387  1.0000
  C   C87       1.0  0.4146429714946664  0.2074467502535572  0.3819614395184303  1.0000
  C   C88       1.0  0.5853570285739176  0.707446749708561  0.6180385605403516  1.0000
  C   C89       1.0  0.45026036899022676  0.7507033848260685  0.1619438983092195  1.0000
  C   C90       1.0  0.5497396310783572  0.25070338349781224  0.8380561017495624  1.0000
  C   C91       1.0  0.7758722314011357  0.03501332455552282  0.02291014091456118  1.0000
  C   C92       1.0  0.2241277686674483  0.5350133240105267  0.9770898591442206  1.0000
  C   C93       1.0  0.8236496648487062  0.05882060453961491  0.547684309975762  1.0000
  C   C94       1.0  0.17635033521987775  0.5588206039946189  0.4523156900830198  1.0000
  C   C95       1.0  0.42183703402545536  0.8366658439464217  0.32661922779974106  1.0000
  C   C96       1.0  0.5781629660431287  0.3366658444914178  0.6733807722590408  1.0000
  C   C97       1.0  0.3091099472849295  0.12752641594085135  0.3098523676851314  1.0000
  C   C98       1.0  0.6908900527836546  0.6275264172691076  0.6901476323736505  1.0000
  C   C99       1.0  0.9187120603923582  0.0884273276189496  0.04098283249527214  1.0000
  C   C100      1.0  0.08128793960055221  0.5884273270739535  0.9590171671613514  1.0000
  C   C101      1.0  0.8484759112149922  0.2247362604382722  0.9518915192199272  1.0000
  C   C102      1.0  0.1515240882891279  0.7247362598932762  0.048108480839136984  1.0000
  C   C103      1.0  0.12118885679986349  0.20258688369496383  0.159805870450836  1.0000
  C   C104      1.0  0.8788111431930469  0.7025868831499678  0.8401941292057876  1.0000
  C   C105      1.0  0.13737956747788707  0.9027810298004951  0.25895555904472867  1.0000
  C   C106      1.0  0.8626204325906969  0.4027810284722388  0.7410444410140532  1.0000
  C   C107      1.0  0.779950464553118  0.06900156235210665  0.962843545255749  1.0000
  C   C108      1.0  0.22004953551546602  0.5690015618071106  0.03715645480303287  1.0000
  C   C109      1.0  0.059101844317173406  0.9885005430798651  0.2324270155201205  1.0000
  C   C110      1.0  0.9408981557514107  0.4885005417516089  0.7675729845386614  1.0000
  C   C111      1.0  0.057725319321352025  0.02552284193154589  0.17186275406717738  1.0000
  C   C112      1.0  0.942274680747232  0.5255228413865498  0.8281372459916044  1.0000
  N   N1        1.0  0.8827295613589407  0.24503383171902532  0.47476937919829904  1.0000
  N   N2        1.0  0.11727043870964342  0.7450338311740292  0.5252306208604829  1.0000
  N   N3        1.0  0.7470387964261745  0.12834989766444407  0.524887996562635  1.0000
  N   N4        1.0  0.2529612036424095  0.628349897119448  0.47511200349614685  1.0000
  N   N5        1.0  0.2574771799037373  0.29394975506581195  0.17730595279131842  1.0000
  N   N6        1.0  0.7425228201648468  0.7939497563940682  0.8226940472674635  1.0000
  N   N7        1.0  0.8450274992560245  0.9229280571578711  0.10924929071536853  1.0000
  N   N8        1.0  0.1549725008125595  0.4229280558296149  0.8907507093434133  1.0000
  N   N9        1.0  0.7144440439764348  0.8641218185903632  0.029952444568947675  1.0000
  N   N10       1.0  0.28555595609214923  0.3641218191353593  0.9700475554898342  1.0000
  N   N11       1.0  0.27328527533463753  0.9932945123680478  0.2724322808080036  1.0000
  N   N12       1.0  0.7267147247339465  0.4932945129130439  0.7275677192507782  1.0000
  Cl  Cl1       1.0  0.6563384758309012  0.2984545335327787  0.3312734760658067  1.0000
  Cl  Cl2       1.0  0.3436615242376828  0.7984545329877826  0.668726523992975  1.0000
  Cl  Cl3       1.0  0.6582901762615301  0.39141617518815786  0.20273594313981336  1.0000
  Cl  Cl4       1.0  0.341709823807054  0.8914161746431618  0.7972640569189685  1.0000
