data_image0
_chemical_formula_structural       H46C44N6O2F8I4
_chemical_formula_sum              "H46 C44 N6 O2 F8 I4"
_cell_length_a       10.73517143240971
_cell_length_b       11.280327196007866
_cell_length_c       11.287254294910392
_cell_angle_alpha    68.22096677723424
_cell_angle_beta     69.49248734536401
_cell_angle_gamma    75.61023682181452

_space_group_name_H-M_alt    "P 1"
_space_group_IT_number       1

loop_
  _space_group_symop_operation_xyz
  'x, y, z'

loop_
  _atom_site_type_symbol
  _atom_site_label
  _atom_site_symmetry_multiplicity
  _atom_site_fract_x
  _atom_site_fract_y
  _atom_site_fract_z
  _atom_site_occupancy
  H   H1        1.0  0.649628761626187  0.2943107643672187  0.3545958172830544  1.0000
  H   H2        1.0  0.3503712384453602  0.7056892359971257  0.6454041827421083  1.0000
  H   H3        1.0  0.36262921563203304  0.7522645992148476  0.16987062785592263  1.0000
  H   H4        1.0  0.637370783753367  0.2477354002282364  0.8301293721713042  1.0000
  H   H5        1.0  0.3817724722430206  0.7582469839906537  0.31785442371007505  1.0000
  H   H6        1.0  0.6182275278285266  0.24175301637369065  0.6821455763150877  1.0000
  H   H7        1.0  0.5088458094438756  0.5477265132302467  0.34501821475065597  1.0000
  H   H8        1.0  0.4911541906276716  0.4522734871340978  0.6549817852745068  1.0000
  H   H9        1.0  0.4822129493264857  0.5438131646719288  0.200365278364294  1.0000
  H   H10       1.0  0.5177870509875196  0.45618683477509303  0.79963472166797  1.0000
  H   H11       1.0  0.2987203204544416  0.5803878036715436  0.5325990269322699  1.0000
  H   H12       1.0  0.7012796798595637  0.4196121957754781  0.46740097309999423  1.0000
  H   H13       1.0  0.22621761080222194  0.4593977728111683  0.522862430696222  1.0000
  H   H14       1.0  0.7737823885831782  0.5406022266319156  0.4771375693310049  1.0000
  H   H15       1.0  0.03492519700911121  0.611611818087682  0.4681026589093683  1.0000
  H   H16       1.0  0.9650748033048943  0.38838818135933983  0.5318973411228957  1.0000
  H   H17       1.0  0.05428051787274966  0.6210364555148731  0.6142300410128243  1.0000
  H   H18       1.0  0.9457194821987978  0.37896354484947126  0.3857699590123383  1.0000
  H   H19       1.0  0.18837645020123625  0.9146743256728888  0.26476708897639234  1.0000
  H   H20       1.0  0.8116235504072955  0.08532567406923791  0.735232910059967  1.0000
  H   H21       1.0  0.11793055155571147  0.795893576285918  0.2503170573223351  1.0000
  H   H22       1.0  0.8820694485158357  0.20410642407842647  0.7496829427028275  1.0000
  H   H23       1.0  0.7633278159193065  0.17886927691764803  0.07930119663612539  1.0000
  H   H24       1.0  0.2366721846892252  0.8211307228244786  0.9206988024002339  1.0000
  H   H25       1.0  0.41599838384993865  0.34260530749705304  0.47764602130723677  1.0000
  H   H26       1.0  0.5840016162216085  0.6573946928672914  0.522353978717926  1.0000
  H   H27       1.0  0.3614918168438266  0.34508250175630417  0.34639289826388914  1.0000
  H   H28       1.0  0.6385081834701788  0.6549174976907175  0.6536071017683748  1.0000
  H   H29       1.0  0.0644049817752964  0.20192204342606718  0.2807230981209983  1.0000
  H   H30       1.0  0.935595018296251  0.7980779569382772  0.7192769019041644  1.0000
  H   H31       1.0  0.9450532330929818  0.1329482053730955  0.9876815702383326  1.0000
  H   H32       1.0  0.05494676697856531  0.867051794991249  0.012318429786830126  1.0000
  H   H33       1.0  0.30284135290697095  0.1485123159891088  0.16236929873701342  1.0000
  H   H34       1.0  0.6971586464784291  0.8514876834539752  0.8376307012902134  1.0000
  H   H35       1.0  0.3631986021040056  0.09122914975622218  0.9533510953231448  1.0000
  H   H36       1.0  0.6368013979675415  0.9087708506081223  0.04664890470201793  1.0000
  H   H37       1.0  0.4166076897287048  0.22884721801622163  0.21784180987086166  1.0000
  H   H38       1.0  0.5833923103428423  0.7711527823481228  0.782158190154301  1.0000
  H   H39       1.0  0.5482381617006326  0.22602420692091416  0.06841911639442773  1.0000
  H   H40       1.0  0.4517618383709146  0.7739757934434304  0.9315808836307351  1.0000
  H   H41       1.0  0.46864536078205005  0.3746689983258098  0.09947051522882998  1.0000
  H   H42       1.0  0.5313546395319553  0.6253310011212121  0.9005294848034341  1.0000
  H   H43       1.0  0.18021613365341682  0.08256511091229574  0.8692957406239861  1.0000
  H   H44       1.0  0.8197838664181304  0.9174348894520488  0.13070425940117666  1.0000
  H   H45       1.0  0.13899373639631327  0.8122977727669956  0.49808831938076603  1.0000
  H   H46       1.0  0.8610062636752339  0.18770222759734898  0.5019116806443967  1.0000
  C   C1        1.0  0.6389737384227371  0.9520618703455389  0.48751461899197635  1.0000
  C   C2        1.0  0.3610262616488101  0.0479381300188057  0.5124853810331863  1.0000
  C   C3        1.0  0.5634324652327685  0.020974252502725683  0.5751791510775047  1.0000
  C   C4        1.0  0.4365675348387787  0.9790257478616188  0.424820848947658  1.0000
  C   C5        1.0  0.5717929504944663  0.9321400157849525  0.41257114100775094  1.0000
  C   C6        1.0  0.4282070498195391  0.06785998366206901  0.5874288590245133  1.0000
  C   C7        1.0  0.06740933945700688  0.5161046282222189  0.07968617287810054  1.0000
  C   C8        1.0  0.9325906606145404  0.4838953721421255  0.9203138271470621  1.0000
  C   C9        1.0  0.9278426562830239  0.5390503021788889  0.11033627447582914  1.0000
  C   C10       1.0  0.07215734378852352  0.46094969818545534  0.8896637255493335  1.0000
  C   C11       1.0  0.1382275142047311  0.4768869475018002  0.9680227721059946  1.0000
  C   C12       1.0  0.8617724849382109  0.5231130528586064  0.03197722791413092  1.0000
  C   C13       1.0  0.31570645558949156  0.7317555783342498  0.27787236067480103  1.0000
  C   C14       1.0  0.6842935447245138  0.26824442111277197  0.722127639357463  1.0000
  C   C15       1.0  0.4405159038727697  0.5189067903148343  0.3090717326292721  1.0000
  C   C16       1.0  0.5594840961987776  0.48109321004951017  0.6909282673958905  1.0000
  C   C17       1.0  0.23788344064291048  0.561977735540044  0.48103561721751087  1.0000
  C   C18       1.0  0.7621165594286369  0.4380222648243004  0.5189643828076518  1.0000
  C   C19       1.0  0.09951817664212365  0.6407125532072394  0.5068791620205776  1.0000
  C   C20       1.0  0.9004818234294236  0.35928744715710503  0.4931208380045853  1.0000
  C   C21       1.0  0.8446165916954168  0.20922580570857485  0.21577864785365936  1.0000
  C   C22       1.0  0.15538340768998332  0.7907741937345092  0.7842213521735675  1.0000
  C   C23       1.0  0.9868861361412571  0.17144984719725256  0.14386210366358698  1.0000
  C   C24       1.0  0.013113863930290098  0.828550153167092  0.8561378963615757  1.0000
  C   C25       1.0  0.17763606990719993  0.8120871747941324  0.3034706695926325  1.0000
  C   C26       1.0  0.8223639301643473  0.1879128255702121  0.6965293304325301  1.0000
  C   C27       1.0  0.6072749885617277  0.26229281929916415  0.21294283310186882  1.0000
  C   C28       1.0  0.39272501058121445  0.7377071810612424  0.7870571669182567  1.0000
  C   C29       1.0  0.7401326501002923  0.2111468528342227  0.16489998322520918  1.0000
  C   C30       1.0  0.25986734904264985  0.7888531475261842  0.8351000167949162  1.0000
  C   C31       1.0  0.4399405215687546  0.37269600597476626  0.36881340376952043  1.0000
  C   C32       1.0  0.5600594778166457  0.6273039934683177  0.6311865962577063  1.0000
  C   C33       1.0  0.09034858801508956  0.1754025744610656  0.19066800627821343  1.0000
  C   C34       1.0  0.9096514120564577  0.8245974259032787  0.8093319937469493  1.0000
  C   C35       1.0  0.02208452094338436  0.13654223920403816  0.027807896348914313  1.0000
  C   C36       1.0  0.9779154791281629  0.8634577611603065  0.9721921036762483  1.0000
  C   C37       1.0  0.224434090871057  0.14607795010661373  0.12333143333139102  1.0000
  C   C38       1.0  0.7755659092004901  0.8539220502577306  0.8766685666937718  1.0000
  C   C39       1.0  0.25815560542887855  0.11256407008423551  0.007325106311869011  1.0000
  C   C40       1.0  0.7418443946426687  0.887435930280109  0.9926748937132935  1.0000
  C   C41       1.0  0.5050783926466607  0.27326539459096605  0.14573465773363253  1.0000
  C   C42       1.0  0.4949216076673447  0.7267346048560556  0.8542653422986314  1.0000
  C   C43       1.0  0.15604016628527848  0.10737891241193184  0.9601299735433253  1.0000
  C   C44       1.0  0.8439598331001218  0.8926210870311521  0.03987002648390158  1.0000
  N   N1        1.0  0.30650587222614206  0.592733627214495  0.3375163327746578  1.0000
  N   N2        1.0  0.6934941278454052  0.4072663731498496  0.6624836672505048  1.0000
  N   N3        1.0  0.5694263459949118  0.30400111585757034  0.3189412491208806  1.0000
  N   N4        1.0  0.4305736531480302  0.6959988845028365  0.6810587508992448  1.0000
  N   N5        1.0  0.10183343836795403  0.7798366480748185  0.4449181883306009  1.0000
  N   N6        1.0  0.8981665617035933  0.2201633522895259  0.5550818116945617  1.0000
  O   O1        1.0  0.8215491296409291  0.24337086277572498  0.31832047102695715  1.0000
  O   O2        1.0  0.17845086950201317  0.7566291375846818  0.6816795289931684  1.0000
  F   F1        1.0  0.6369229146847446  0.8632583360827137  0.32600126161632903  1.0000
  F   F2        1.0  0.36307708470065553  0.13674166336037008  0.6739987384108979  1.0000
  F   F3        1.0  0.6216674042356897  0.04409175803810518  0.6529557255367647  1.0000
  F   F4        1.0  0.37833259607831576  0.9559082414089166  0.34704427449549935  1.0000
  F   F5        1.0  0.8533208581749149  0.5786521840459531  0.21736697871153493  1.0000
  F   F6        1.0  0.14667914213909053  0.4213478154010687  0.7826330213207291  1.0000
  F   F7        1.0  0.27451879951708247  0.45299153240824885  0.933740678834435  1.0000
  F   F8        1.0  0.725481200796923  0.547008467038773  0.06625932119782886  1.0000
  I   I1        1.0  0.8477722950286388  0.880238691124995  0.46921906530246554  1.0000
  I   I2        1.0  0.15222770504290842  0.11976130923934962  0.5307809347226972  1.0000
  I   I3        1.0  0.1690393804638705  0.5445249442054917  0.19634048120615688  1.0000
  I   I4        1.0  0.8309606196076765  0.45547505615885275  0.8036595188190059  1.0000
