data_image0
_chemical_formula_structural       H92C112N12O4F24I24
_chemical_formula_sum              "H92 C112 N12 O4 F24 I24"
_cell_length_a       9.215639051975806
_cell_length_b       16.055393973530823
_cell_length_c       24.391328258547233
_cell_angle_alpha    70.72339975618212
_cell_angle_beta     85.70350615886156
_cell_angle_gamma    83.26613780532915

_space_group_name_H-M_alt    "P 1"
_space_group_IT_number       1

loop_
  _space_group_symop_operation_xyz
  'x, y, z'

loop_
  _atom_site_type_symbol
  _atom_site_label
  _atom_site_symmetry_multiplicity
  _atom_site_fract_x
  _atom_site_fract_y
  _atom_site_fract_z
  _atom_site_occupancy
  H   H1        1.0  0.19840938801217503  0.7739517669562215  0.752941389706891  1.0000
  H   H2        1.0  0.801590612180342  0.2260482327587545  0.24705861045320293  1.0000
  H   H3        1.0  0.9209809577790379  0.9424161122681521  0.6847946213352089  1.0000
  H   H4        1.0  0.07901904245743678  0.05758388766012433  0.31520537839023066  1.0000
  H   H5        1.0  0.06987023615963918  0.6183418159624544  0.6298329191127306  1.0000
  H   H6        1.0  0.930129764032878  0.3816581837525217  0.37016708104736323  1.0000
  H   H7        1.0  0.9341657992149187  0.5701406780584555  0.6830556166394487  1.0000
  H   H8        1.0  0.06583420084907791  0.42985932228432255  0.3169443835193628  1.0000
  H   H9        1.0  0.36624528111382343  0.4801042732832502  0.7275955492583706  1.0000
  H   H10       1.0  0.6337547190786936  0.5198957264317258  0.27240445090172327  1.0000
  H   H11       1.0  0.3418318433006969  0.5634522844492366  0.6585350329988549  1.0000
  H   H12       1.0  0.658168156807257  0.4365477161068416  0.3414649667253024  1.0000
  H   H13       1.0  0.40303130732901576  0.42165774271277023  0.6438771439535816  1.0000
  H   H14       1.0  0.5969686927349807  0.578342257630008  0.3561228562052299  1.0000
  H   H15       1.0  0.26293222599089294  0.37199976778112587  0.694511581026263  1.0000
  H   H16       1.0  0.737067773116628  0.6280002319338112  0.3054884191332928  1.0000
  H   H17       1.0  0.0034556481014079822  0.424660551886552  0.669130412709352  1.0000
  H   H18       1.0  0.9965443520911091  0.5753394478284239  0.33086958745074196  1.0000
  H   H19       1.0  0.96744654416778  0.5077694434638531  0.6005235736985847  1.0000
  H   H20       1.0  0.03255345606869463  0.49223055646442326  0.3994764260268549  1.0000
  H   H21       1.0  0.20233738786065703  0.5656312646792215  0.7812856621476351  1.0000
  H   H22       1.0  0.7976626123318599  0.43436873503575435  0.218714338012459  1.0000
  H   H23       1.0  0.029585646794348403  0.6120062281576213  0.7522259505998659  1.0000
  H   H24       1.0  0.970414353398169  0.38799377155735454  0.24777404956022822  1.0000
  H   H25       1.0  0.3307195666992478  0.6743680304341333  0.7085428256930807  1.0000
  H   H26       1.0  0.6692804335372268  0.32563196949414314  0.2914571740323589  1.0000
  H   H27       1.0  0.19388887532225652  0.696271787853291  0.6576713707327148  1.0000
  H   H28       1.0  0.8061111248702606  0.3037282118616851  0.3423286294273792  1.0000
  H   H29       1.0  0.08776032175041155  0.9556848774636982  0.8514968870459602  1.0000
  H   H30       1.0  0.9122396784860629  0.04431512246457811  0.1485031126794794  1.0000
  H   H31       1.0  0.9626091116319407  0.07310401757904164  0.6734726552135345  1.0000
  H   H32       1.0  0.03739088751953755  0.9268959823491958  0.3265273445113668  1.0000
  H   H33       1.0  0.017888270389616063  0.09944992301800434  0.8680131966082749  1.0000
  H   H34       1.0  0.9821117296743803  0.9005500773247738  0.13198680355053669  1.0000
  H   H35       1.0  0.04342613723157336  0.8054870008358053  0.6086673517663747  1.0000
  H   H36       1.0  0.9565738628763807  0.19451299972027294  0.3913326479577826  1.0000
  H   H37       1.0  0.8810853527811571  0.8581619231860464  0.6307347157020665  1.0000
  H   H38       1.0  0.11891464741136006  0.1418380765289294  0.3692652844580274  1.0000
  H   H39       1.0  0.9221514922546423  0.7414164624008144  0.6615638414376294  1.0000
  H   H40       1.0  0.07784850793787482  0.2585835373141614  0.3384361587224646  1.0000
  H   H41       1.0  0.9183721317975627  0.23082366146288588  0.7867639450102882  1.0000
  H   H42       1.0  0.08162786730995797  0.7691763382520512  0.21323605514926744  1.0000
  H   H43       1.0  0.8911701264242028  0.21560149180757493  0.6898100674666174  1.0000
  H   H44       1.0  0.10882987363979363  0.784398508535203  0.3101899326921941  1.0000
  H   H45       1.0  0.19148343568263348  0.4201029241142194  0.5935538634557037  1.0000
  H   H46       1.0  0.808516564381363  0.5798970762285588  0.40644613670310786  1.0000
  H   H47       1.0  0.7045599580378283  0.737478473700765  0.7516357953470345  1.0000
  H   H48       1.0  0.29544004202616825  0.26252152664201295  0.24836420481177698  1.0000
  H   H49       1.0  0.7148153237273729  0.5577320878316732  0.6510438445635024  1.0000
  H   H50       1.0  0.2851846763805809  0.4422679127244053  0.3489561551606548  1.0000
  H   H51       1.0  0.47162030476911415  0.5662833810695737  0.8177670871735037  1.0000
  H   H52       1.0  0.5283796954234029  0.43371661864540223  0.18223291298659033  1.0000
  H   H53       1.0  0.7354940138427715  0.030276096188412434  0.7751916811642858  1.0000
  H   H54       1.0  0.2645059863497456  0.9697239035265637  0.22480831899580808  1.0000
  H   H55       1.0  0.7227736988555369  0.9490906706969989  0.8453634813705543  1.0000
  H   H56       1.0  0.2772263013369803  0.05090932901797694  0.1546365187895397  1.0000
  H   H57       1.0  0.4660563045005674  0.8923665457031644  0.8781431325471922  1.0000
  H   H58       1.0  0.5339436956073866  0.10763345485291409  0.12185686717696492  1.0000
  H   H59       1.0  0.3261321279118765  0.937734325484526  0.8269263547402607  1.0000
  H   H60       1.0  0.6738678723245981  0.062265674443750384  0.17307364498517883  1.0000
  H   H61       1.0  0.7731041677981437  0.8375570378566249  0.7964248108398315  1.0000
  H   H62       1.0  0.22689583239437344  0.16244296185835094  0.20357518932026247  1.0000
  H   H63       1.0  0.6273665267870289  0.8119068362214338  0.8481345381070355  1.0000
  H   H64       1.0  0.3726334734054884  0.18809316349354194  0.15186546205305843  1.0000
  H   H65       1.0  0.7201168068043818  0.09442931410450231  0.8561922594505639  1.0000
  H   H66       1.0  0.27988319330357203  0.905570686451576  0.14380774027359325  1.0000
  H   H67       1.0  0.5740715512319112  0.13898350618210412  0.8075712712497826  1.0000
  H   H68       1.0  0.42592844900456317  0.8610164937461722  0.1924287284756569  1.0000
  H   H69       1.0  0.5655016729696227  0.435670284752043  0.8282109609952542  1.0000
  H   H70       1.0  0.43449832709437375  0.5643297155907353  0.17178903916355737  1.0000
  H   H71       1.0  0.6211252683073127  0.9431971353470586  0.7241905372157559  1.0000
  H   H72       1.0  0.37887473192916166  0.056802864581217694  0.2758094625096837  1.0000
  H   H73       1.0  0.4591190923164328  0.8954381331841043  0.7565747354294529  1.0000
  H   H74       1.0  0.5408809079200418  0.10456186674417195  0.24342526429598677  1.0000
  H   H75       1.0  0.3296540223901909  0.08467559646664502  0.8384728255285692  1.0000
  H   H76       1.0  0.6703459778023262  0.9153244032483311  0.1615271746315247  1.0000
  H   H77       1.0  0.3088559444102163  0.002535551919132351  0.9083760815171054  1.0000
  H   H78       1.0  0.69114405565378  0.997464448423646  0.09162391864170612  1.0000
  H   H79       1.0  0.7127410523629069  0.4150339489642137  0.6325544382987325  1.0000
  H   H80       1.0  0.28725894770108973  0.5849660513785645  0.36744556186007904  1.0000
  H   H81       1.0  0.5040574945874288  0.6958422961465267  0.8969306560505319  1.0000
  H   H82       1.0  0.4959425056050884  0.3041577035684493  0.10306934410956195  1.0000
  H   H83       1.0  0.36831311268283085  0.6509624562892586  0.8707906777669181  1.0000
  H   H84       1.0  0.6316868864246898  0.3490375434256782  0.12920932239263766  1.0000
  H   H85       1.0  0.3822563273417064  0.7672761050292627  0.8446486539824243  1.0000
  H   H86       1.0  0.6177436728508107  0.23272389468571344  0.15535134617766969  1.0000
  H   H87       1.0  0.5614917131344728  0.2943414961358343  0.810048166763043  1.0000
  H   H88       1.0  0.43850828705804445  0.7056585035791415  0.1899518333970509  1.0000
  H   H89       1.0  0.635280402297601  0.2821777666114853  0.712141215461568  1.0000
  H   H90       1.0  0.3647195966813991  0.717822233731254  0.2878587846967054  1.0000
  H   H91       1.0  0.4931879870698143  0.09389664436135932  0.9105559260272152  1.0000
  H   H92       1.0  0.5068120129941822  0.9061033559814188  0.08944407413159641  1.0000
  C   C1        1.0  0.9089101571026043  0.2585802576237754  0.9045611519097454  1.0000
  C   C2        1.0  0.09108984308991268  0.7414197420912005  0.0954388482503485  1.0000
  C   C3        1.0  0.1343295612902157  0.15186497275919855  0.9716394428906351  1.0000
  C   C4        1.0  0.865670438946259  0.8481350271690777  0.028360556834804446  1.0000
  C   C5        1.0  0.8728068329684814  0.1918411183803653  0.9555815209639638  1.0000
  C   C6        1.0  0.12719316709551506  0.8081588819624128  0.04441847919484782  1.0000
  C   C7        1.0  0.1623876270761273  0.21965216769989224  0.9200108207867974  1.0000
  C   C8        1.0  0.8376123729878693  0.7803478326428858  0.07998917937201407  1.0000
  C   C9        1.0  0.05248354350456821  0.2741680086940776  0.8850308391212623  1.0000
  C   C10       1.0  0.9475164566879489  0.7258319910208985  0.1149691610388315  1.0000
  C   C11       1.0  0.9881399831800962  0.13841578524817075  0.9878101567051706  1.0000
  C   C12       1.0  0.011860017012420869  0.8615842144668051  0.01218984345492328  1.0000
  C   C13       1.0  0.21349381267658774  0.412116238544698  0.9669609200662261  1.0000
  C   C14       1.0  0.786506186430933  0.5878837611702392  0.033039080093329606  1.0000
  C   C15       1.0  0.10492098523076164  0.4662552307122525  0.930974787878339  1.0000
  C   C16       1.0  0.8950790149617556  0.5337447690027234  0.06902521228175493  1.0000
  C   C17       1.0  0.9567447212617728  0.45451857822409036  0.942467637621537  1.0000
  C   C18       1.0  0.04325527893074431  0.5454814214908855  0.057532362538556966  1.0000
  C   C19       1.0  0.16909141956139861  0.3455451785293776  0.01663884868887126  1.0000
  C   C20       1.0  0.8309085805025979  0.6544548218134004  0.9833611514699403  1.0000
  C   C21       1.0  0.9189636567773233  0.3880062889651151  0.9933103319393087  1.0000
  C   C22       1.0  0.08103634237415507  0.6119937109631223  0.006689667785592575  1.0000
  C   C23       1.0  0.022301376051912555  0.33299282052498325  0.03157062027736427  1.0000
  C   C24       1.0  0.9776986229270876  0.667007179817756  0.9684293798809092  1.0000
  C   C25       1.0  0.4833151870309065  0.3414955807295639  0.52571390407407  1.0000
  C   C26       1.0  0.516684813205568  0.6585044191987124  0.4742860956513694  1.0000
  C   C27       1.0  0.22574141007458876  0.312738037648587  0.5434565576910578  1.0000
  C   C28       1.0  0.7742585901179284  0.6872619620663889  0.45654344246903605  1.0000
  C   C29       1.0  0.5130669329174588  0.2776638131052517  0.5795663128900667  1.0000
  C   C30       1.0  0.4869330671465376  0.7223361872375264  0.42043368726874486  1.0000
  C   C31       1.0  0.33834078046991056  0.3577772881269402  0.5089470759230715  1.0000
  C   C32       1.0  0.6616592185090896  0.642222712215799  0.49105292423520175  1.0000
  C   C33       1.0  0.2635466823988719  0.24913764939556993  0.5965730126593629  1.0000
  C   C34       1.0  0.7364533166240858  0.7508623511604697  0.403426987064256  1.0000
  C   C35       1.0  0.40577495206078934  0.23023734153794972  0.6162481191746045  1.0000
  C   C36       1.0  0.5942250480032072  0.7697626588048284  0.383751880984207  1.0000
  C   C37       1.0  0.3319645344854978  0.9105312302545325  0.4675691834670102  1.0000
  C   C38       1.0  0.6680354655784986  0.08946877008824553  0.5324308166918014  1.0000
  C   C39       1.0  0.581935679172946  0.9508231370484703  0.4409075480991033  1.0000
  C   C40       1.0  0.4180643199345748  0.0491768626664666  0.5590924520604524  1.0000
  C   C41       1.0  0.4335087326896585  0.9612949702391377  0.4293968088136127  1.0000
  C   C42       1.0  0.5664912675028586  0.03870502947583837  0.5706031913464812  1.0000
  C   C43       1.0  0.6261592954821881  0.888836702091868  0.493629636870498  1.0000
  C   C44       1.0  0.37384070458180846  0.11116329825090998  0.5063703632883135  1.0000
  C   C45       1.0  0.3831756838903136  0.8489992109750659  0.519390212906601  1.0000
  C   C46       1.0  0.6168243162176402  0.15100078958101254  0.4806097868175562  1.0000
  C   C47       1.0  0.5293268230072543  0.8375880039588112  0.5340080955494325  1.0000
  C   C48       1.0  0.47067317705674205  0.16241199638396714  0.465991904609379  1.0000
  C   C49       1.0  0.00920079737259902  0.8967119158862771  0.7084281586768546  1.0000
  C   C50       1.0  0.9907992028638755  0.10328808404199931  0.291571841048585  1.0000
  C   C51       1.0  0.07568486738437982  0.9170961718840902  0.7526118756008268  1.0000
  C   C52       1.0  0.9243151317231408  0.08290382783084692  0.24738812455872888  1.0000
  C   C53       1.0  0.042797121245980445  0.5565739645185849  0.6643042376240402  1.0000
  C   C54       1.0  0.9572028789904943  0.4434260354096914  0.3356957621013993  1.0000
  C   C55       1.0  0.04706520905782133  0.8193162415317696  0.6934357314526758  1.0000
  C   C56       1.0  0.9529347910061753  0.18068375881100837  0.30656426870613585  1.0000
  C   C57       1.0  0.29539630050807525  0.5052171718798751  0.6902742309024505  1.0000
  C   C58       1.0  0.7046036997283993  0.4947828280484011  0.30972576882298897  1.0000
  C   C59       1.0  0.030594429520579683  0.004083866653710987  0.7615209223547045  1.0000
  C   C60       1.0  0.9694055705434168  0.9959161336890671  0.23847907780410713  1.0000
  C   C61       1.0  0.29305798757787865  0.4343611326970685  0.6616680349344856  1.0000
  C   C62       1.0  0.7069420126146384  0.5656388670179074  0.3383319652256084  1.0000
  C   C63       1.0  0.04236181664181339  0.4848368974281471  0.6365851792878411  1.0000
  C   C64       1.0  0.9576381835507036  0.5151631022868289  0.36341482087225285  1.0000
  C   C65       1.0  0.14461971881800956  0.5959998196350725  0.7405397162465474  1.0000
  C   C66       1.0  0.8553802813745076  0.40400018007990357  0.25946028391354653  1.0000
  C   C67       1.0  0.21193662436249064  0.6821476052188317  0.7038996938042518  1.0000
  C   C68       1.0  0.7880633758300266  0.31785239449614433  0.29610030635584206  1.0000
  C   C69       1.0  0.04635420224346153  0.01317251262468186  0.8160553959130193  1.0000
  C   C70       1.0  0.9536457979930132  0.9868274873035944  0.18394460381242012  1.0000
  C   C71       1.0  0.9733228995481935  0.07796530558639346  0.7164606461442434  1.0000
  C   C72       1.0  0.026677100644323746  0.9220346941285825  0.2835393540158504  1.0000
  C   C73       1.0  0.006131642389961734  0.09403400210724562  0.8252156346944265  1.0000
  C   C74       1.0  0.9938683577179921  0.9059659984488329  0.17478436502973063  1.0000
  C   C75       1.0  0.9691835321751093  0.8052349881746864  0.6460982483162617  1.0000
  C   C76       1.0  0.030816468017407683  0.19476501154028947  0.3539017518438322  1.0000
  C   C77       1.0  0.9497714183363964  0.16730409057114964  0.7799375320145641  1.0000
  C   C78       1.0  0.050228580686561226  0.8326959099848898  0.2200624677090549  1.0000
  C   C79       1.0  0.9334642920631732  0.15890566552000251  0.7256143645945015  1.0000
  C   C80       1.0  0.0665357070443478  0.8410943341949346  0.27438563556505424  1.0000
  C   C81       1.0  0.6441671880764205  0.5936199090038052  0.7505701442442592  1.0000
  C   C82       1.0  0.35583281211609663  0.40638009071117076  0.24942985591583475  1.0000
  C   C83       1.0  0.6831899559120945  0.49946746102994866  0.6858892633854413  1.0000
  C   C84       1.0  0.31681004415190195  0.5005325393128295  0.31411073677337026  1.0000
  C   C85       1.0  0.5498678832873855  0.6128090395180634  0.794645468477985  1.0000
  C   C86       1.0  0.45013211690513183  0.3871909601969125  0.20535453168210877  1.0000
  C   C87       1.0  0.6626922986754354  0.006070484514538774  0.8135251007946882  1.0000
  C   C88       1.0  0.3373077015610392  0.9939295154137374  0.1864748989307514  1.0000
  C   C89       1.0  0.4233920766553785  0.95305739838498  0.8437111088386514  1.0000
  C   C90       1.0  0.5766079234525754  0.046942602171098295  0.15628889088550588  1.0000
  C   C91       1.0  0.6408727660555092  0.5069458026545564  0.7407410376711461  1.0000
  C   C92       1.0  0.3591272341809654  0.4930541972737199  0.25925896205429344  1.0000
  C   C93       1.0  0.6563972572123139  0.8277481246661145  0.8016511864384623  1.0000
  C   C94       1.0  0.3436027429802033  0.1722518750488616  0.19834881372163146  1.0000
  C   C95       1.0  0.5478299497921643  0.6897762957818586  0.8104003872386095  1.0000
  C   C96       1.0  0.4521700504003528  0.3102237039331172  0.1895996129214845  1.0000
  C   C97       1.0  0.621388141964159  0.07856964835790194  0.8408571164620187  1.0000
  C   C98       1.0  0.3786118582283581  0.921430351357074  0.15914288369807528  1.0000
  C   C99       1.0  0.5965519170808148  0.4319866931870857  0.785034336927976  1.0000
  C   C100      1.0  0.4034480829831817  0.5680133071556925  0.21496566323083555  1.0000
  C   C101      1.0  0.5641498295240043  0.9129193300629943  0.7660813348096314  1.0000
  C   C102      1.0  0.43585017058394954  0.08708067049308402  0.2339186649145259  1.0000
  C   C103      1.0  0.3844538247358093  0.025802633859811155  0.8707635584948268  1.0000
  C   C104      1.0  0.6155461754567078  0.9741973658551651  0.12923644166526696  1.0000
  C   C105      1.0  0.6812278966800576  0.4192469776064499  0.6756177927826333  1.0000
  C   C106      1.0  0.3187721035124595  0.5807530221085262  0.3243822073774605  1.0000
  C   C107      1.0  0.44481640728281846  0.7018328888267008  0.8581263752157052  1.0000
  C   C108      1.0  0.5551835929096985  0.2981671108882751  0.1418736249443888  1.0000
  C   C109      1.0  0.5951688999370011  0.351654474973582  0.774834213832541  1.0000
  C   C110      1.0  0.40483110025551594  0.648345524741394  0.2251657863275529  1.0000
  C   C111      1.0  0.637508030610884  0.3449233922183634  0.7201495657827157  1.0000
  C   C112      1.0  0.3624919694970699  0.6550766083377149  0.2798504339414416  1.0000
  N   N1        1.0  0.147810857282303  0.5296804134317872  0.7110153388209836  1.0000
  N   N2        1.0  0.8521891418252177  0.47031958628314996  0.28898466133857215  1.0000
  N   N3        1.0  0.15345644143060483  0.7587660886858432  0.7203004260365063  1.0000
  N   N4        1.0  0.8465435588058696  0.24123391124243304  0.2796995736889332  1.0000
  N   N5        1.0  0.1906029895154771  0.4661501366057679  0.6141658249076806  1.0000
  N   N6        1.0  0.8093970105924767  0.5338498639503106  0.3858341748164766  1.0000
  N   N7        1.0  0.6389111042923113  0.7514118893501067  0.7843250084440666  1.0000
  N   N8        1.0  0.3610888959441632  0.24858811057816949  0.215674991281373  1.0000
  N   N9        1.0  0.5314639800846248  0.9798704032522205  0.7952347111387645  1.0000
  N   N10       1.0  0.468536020023329  0.02012959730385805  0.20476528858539259  1.0000
  N   N11       1.0  0.5179143189923785  0.04735254644793011  0.8901792427451062  1.0000
  N   N12       1.0  0.482085681071618  0.9526474538948478  0.10982075741370544  1.0000
  O   O1        1.0  0.17225658618497344  0.8631466232213715  0.7851674631149943  1.0000
  O   O2        1.0  0.8277434140515011  0.13685337670690484  0.21483253661044524  1.0000
  O   O3        1.0  0.7311601186321903  0.6485384969803588  0.7187597938563831  1.0000
  O   O4        1.0  0.2688398815603267  0.3514615027346171  0.28124020630371077  1.0000
  F   F1        1.0  0.95630143718376  0.07148496594979119  0.03695084678546383  1.0000
  F   F2        1.0  0.04369856305271449  0.9285150339784849  0.9630491529399757  1.0000
  F   F3        1.0  0.30449305950066763  0.233487423561208  0.9031224307167458  1.0000
  F   F4        1.0  0.6955069406918494  0.7665125761537681  0.0968775694433481  1.0000
  F   F5        1.0  0.7982300033862355  0.3104945767914911  0.8724582209654986  1.0000
  F   F6        1.0  0.20176999685023903  0.6895054231367852  0.12754177875994077  1.0000
  F   F7        1.0  0.14506506264493585  0.5330670521666142  0.8835434271311229  1.0000
  F   F8        1.0  0.8549349375475814  0.46693294754836184  0.11645657302897086  1.0000
  F   F9        1.0  0.2723531214317557  0.29183195726038197  0.052165843027107646  1.0000
  F   F10       1.0  0.7276468787607614  0.7081680424545942  0.9478341571329861  1.0000
  F   F11       1.0  0.7755542581361259  0.37655186217283043  0.006358253356205652  1.0000
  F   F12       1.0  0.2244457410153524  0.623448137755407  0.9936417463686956  1.0000
  F   F13       1.0  0.3042587846794398  0.42052544499545835  0.4573706881461978  1.0000
  F   F14       1.0  0.6957412155570347  0.5794745549328179  0.5426293115792417  1.0000
  F   F15       1.0  0.6532553686237097  0.26097980000838994  0.5972197286865224  1.0000
  F   F16       1.0  0.34674463048381116  0.7390201997065471  0.4027802714730333  1.0000
  F   F17       1.0  0.15598934038637147  0.20484185181438105  0.6307631046878615  1.0000
  F   F18       1.0  0.8440106597215824  0.7951581487416973  0.36923689503629575  1.0000
  F   F19       1.0  0.3857059222404227  0.0233568901839704  0.37969316898057714  1.0000
  F   F20       1.0  0.6142940778235738  0.9766431101588077  0.6203068311782344  1.0000
  F   F21       1.0  0.2872072285721492  0.7987744028573925  0.5571609715363698  1.0000
  F   F22       1.0  0.7127927716203679  0.20122559685758362  0.4428390286237241  1.0000
  F   F23       1.0  0.7692595990247663  0.8780988823535723  0.5063989757730428  1.0000
  F   F24       1.0  0.2307404000827545  0.12190111736136501  0.4936010243865128  1.0000
  I   I1        1.0  0.3025359637268277  0.07313159932644756  0.02772861329868559  1.0000
  I   I2        1.0  0.6974640352961298  0.9268684012295919  0.9722713864249335  1.0000
  I   I3        1.0  0.09261603786558932  0.3789408849819966  0.8061900449080597  1.0000
  I   I4        1.0  0.9073839623708853  0.6210591149462797  0.1938099548173798  1.0000
  I   I5        1.0  0.6530998236039842  0.1756665267370506  0.9821951610253035  1.0000
  I   I6        1.0  0.34690017554749414  0.8243334731911868  0.01780483869959783  1.0000
  I   I7        1.0  0.9557841299556208  0.24061930218519295  0.1098056528285076  1.0000
  I   I8        1.0  0.04421587023689636  0.759380697529783  0.8901943473315863  1.0000
  I   I9        1.0  0.7962494075258718  0.5289790928674232  0.8844297248694937  1.0000
  I   I10       1.0  0.20375059266664522  0.4710209068475529  0.11557027529060013  1.0000
  I   I11       1.0  0.4337642851991695  0.4325587203489751  0.9485139237529975  1.0000
  I   I12       1.0  0.566235714864827  0.5674412799938031  0.05148607640581406  1.0000
  I   I13       1.0  0.6460627743335672  0.4148724942367387  0.4689282726123845  1.0000
  I   I14       1.0  0.3539372258589499  0.5851275054782372  0.5310717275477094  1.0000
  I   I15       1.0  0.4507936921164579  0.1308686151814537  0.697956080951625  1.0000
  I   I16       1.0  0.5492063080760592  0.8691313845335222  0.3020439192084689  1.0000
  I   I17       1.0  0.006223714800836464  0.341372780873925  0.5191217139984363  1.0000
  I   I18       1.0  0.9937762852631601  0.6586272194688532  0.48087828616037526  1.0000
  I   I19       1.0  0.7367082027459882  0.021072981389350834  0.3811403989548571  1.0000
  I   I20       1.0  0.26329179731800817  0.9789270189534272  0.6188596012039544  1.0000
  I   I21       1.0  0.6024828045745015  0.7507383104539437  0.6140035183330868  1.0000
  I   I22       1.0  0.3975171954894951  0.24926168988883454  0.3859964818257248  1.0000
  I   I23       1.0  0.11082728785876904  0.9274380288371071  0.448736146807501  1.0000
  I   I24       1.0  0.8891727123337483  0.07256197087786864  0.551263853352593  1.0000
