data_image0
_chemical_formula_structural       H18C18Br6
_chemical_formula_sum              "H18 C18 Br6"
_cell_length_a       8.678584473670538
_cell_length_b       8.678584473670462
_cell_length_c       8.380780948167212
_cell_angle_alpha    90.0
_cell_angle_beta     90.0
_cell_angle_gamma    120.00000000000027

_space_group_name_H-M_alt    "P 1"
_space_group_IT_number       1

loop_
  _space_group_symop_operation_xyz
  'x, y, z'

loop_
  _atom_site_type_symbol
  _atom_site_label
  _atom_site_symmetry_multiplicity
  _atom_site_fract_x
  _atom_site_fract_y
  _atom_site_fract_z
  _atom_site_occupancy
  H   H1        1.0  0.4154184119243805  0.9999978321741253  0.6666698395478126  1.0000
  H   H2        1.0  2.167950547359716e-06  0.41542057931096  0.33333650614158283  1.0000
  H   H3        1.0  0.5845794214853235  0.5845815890237572  3.1727353530001223e-06  1.0000
  H   H4        1.0  0.4173206009626751  0.7173237381385019  0.7106194180271965  1.0000
  H   H5        1.0  0.28267626081196245  0.6999968618187095  0.3772860846209667  1.0000
  H   H6        1.0  0.30000313776809345  0.5826793992211138  0.043952751214736865  1.0000
  H   H7        1.0  0.7173224221946896  0.4173201865932319  0.2894054569616712  1.0000
  H   H8        1.0  0.6999977640709909  0.28267757735121946  0.622738790367901  1.0000
  H   H9        1.0  0.5826798134706183  0.30000223569114204  0.9560721237741309  1.0000
  H   H10       1.0  0.7040335877522375  0.7166873291810494  0.708500679915579  1.0000
  H   H11       1.0  0.28331267071240923  0.9873462586982765  0.37516734650934913  1.0000
  H   H12       1.0  0.01265374174334304  0.2959664126295165  0.041834013103119336  1.0000
  H   H13       1.0  0.7166877956892709  0.7040342455727289  0.2915193399171581  1.0000
  H   H14       1.0  0.9873464499507143  0.2833122047639924  0.6248526733233879  1.0000
  H   H15       1.0  0.2959657540963135  0.012653549298872073  0.9581860067296176  1.0000
  H   H16       1.0  0.9897713944286897  0.9999973957822822  0.6666646228501958  1.0000
  H   H17       1.0  2.605130883238288e-06  0.989773998761656  0.3333312894439659  1.0000
  H   H18       1.0  0.010226000648416878  0.010228605964904363  0.9999979562564255  1.0000
  C   C1        1.0  0.5410142353810009  0.9999991281017062  0.6666780929552728  1.0000
  C   C2        1.0  8.71971233466511e-07  0.5410151078686462  0.33334475954904297  1.0000
  C   C3        1.0  0.45898489285575533  0.45898576453849  1.1426142813211424e-05  1.0000
  C   C4        1.0  0.5425410688803348  0.8413411422010201  0.6933145879765177  1.0000
  C   C5        1.0  0.15865885843946068  0.7011999260560017  0.3599812545702879  1.0000
  C   C6        1.0  0.298800074040456  0.45745893225182077  0.026647921164058102  1.0000
  C   C7        1.0  0.8413397792704439  0.5425415383602238  0.30670537219590804  1.0000
  C   C8        1.0  0.7012017587130686  0.15866022119123163  0.6400387044089316  1.0000
  C   C9        1.0  0.45745846241804483  0.29879824141465505  0.9733720378151614  1.0000
  C   C10       1.0  0.7044255458027548  0.841551208243472  0.691586312283646  1.0000
  C   C11       1.0  0.15844879133231357  0.8628743366759498  0.35825297887741614  1.0000
  C   C12       1.0  0.13712566355992434  0.2955744542589036  0.02491964547118636  1.0000
  C   C13       1.0  0.8415510447919237  0.7044233193899027  0.30843001696223626  1.0000
  C   C14       1.0  0.8628722740665269  0.15844895503233564  0.6417633503684661  1.0000
  C   C15       1.0  0.295576680877848  0.13712772521335514  0.975096683774696  1.0000
  C   C16       1.0  0.8642380124434466  0.9999973359051252  0.6666736542281149  1.0000
  C   C17       1.0  2.66504120260149e-06  0.8642406766533933  0.333340320821885  1.0000
  C   C18       1.0  0.13575932387560213  0.13576198795032393  6.9874156551969605e-06  1.0000
  Br  Br1       1.0  0.6132699031899072  0.9506267877439324  0.03252897333626393  1.0000
  Br  Br2       1.0  0.0493732129183254  0.6626431160300936  0.6991956401487236  1.0000
  Br  Br3       1.0  0.3373568840997572  0.3867300967348166  0.36586230674249376  1.0000
  Br  Br4       1.0  0.9506338244703326  0.6133054503051373  0.9675036336289434  1.0000
  Br  Br5       1.0  0.6626716271677093  0.04936617609461823  0.3008369668164839  1.0000
  Br  Br6       1.0  0.3866945492505184  0.3373283732358378  0.6341703002227137  1.0000
