data_image0
_chemical_formula_structural       H44C48N2O14S4Cl2
_chemical_formula_sum              "H44 C48 N2 O14 S4 Cl2"
_cell_length_a       7.434606148655364
_cell_length_b       7.57678162447715
_cell_length_c       21.75768190139485
_cell_angle_alpha    93.80756739911406
_cell_angle_beta     100.4943522622247
_cell_angle_gamma    97.73579821850164

_space_group_name_H-M_alt    "P 1"
_space_group_IT_number       1

loop_
  _space_group_symop_operation_xyz
  'x, y, z'

loop_
  _atom_site_type_symbol
  _atom_site_label
  _atom_site_symmetry_multiplicity
  _atom_site_fract_x
  _atom_site_fract_y
  _atom_site_fract_z
  _atom_site_occupancy
  H   H1        1.0  0.6085156553270747  0.6841047072670463  0.5795486214068891  1.0000
  H   H2        1.0  0.3914843455937856  0.31589529384979376  0.4204513788085177  1.0000
  H   H3        1.0  0.8805620681911946  0.6549203379676235  0.40686541360041795  1.0000
  H   H4        1.0  0.11943793254601097  0.34507966181789557  0.5931345866172628  1.0000
  H   H5        1.0  0.9742281100839515  0.8733655059738012  0.33320350596097625  1.0000
  H   H6        1.0  0.025771890653254238  0.1266344938117177  0.6667964942567045  1.0000
  H   H7        1.0  0.7797767867209304  0.2898303916263819  0.43740321740009913  1.0000
  H   H8        1.0  0.22022321240717688  0.7101696080295783  0.5625967823464091  1.0000
  H   H9        1.0  0.6840133432529657  0.07083363202344103  0.5096515630342134  1.0000
  H   H10       1.0  0.31598665613851856  0.929166367763816  0.49034843718176135  1.0000
  H   H11       1.0  0.7278154999001495  0.4414539352795205  0.5518486176589157  1.0000
  H   H12       1.0  0.27218449949133483  0.5585460645077364  0.44815138255705916  1.0000
  H   H13       1.0  0.4819094030622626  0.824994035646286  0.047760677828537365  1.0000
  H   H14       1.0  0.5180905974115659  0.175005964007936  0.9522393219196768  1.0000
  H   H15       1.0  0.6759469240411685  0.0648251241648034  0.6214526802391483  1.0000
  H   H16       1.0  0.32405307643266024  0.9351748754894187  0.3785473195090659  1.0000
  H   H17       1.0  0.6231851453141534  0.8415645720165866  0.6969036913806569  1.0000
  H   H18       1.0  0.3768148551596751  0.15843542763763555  0.3030963083675574  1.0000
  H   H19       1.0  0.49855953979936596  0.9294071722753807  0.7921391052233332  1.0000
  H   H20       1.0  0.5014404595921185  0.07059282751187626  0.20786089499264176  1.0000
  H   H21       1.0  0.43519261713800017  0.23412637143539403  0.8117480326844405  1.0000
  H   H22       1.0  0.5648073833358284  0.7658736282188282  0.1882519670637736  1.0000
  H   H23       1.0  0.16455744695359611  0.39237082453632366  0.7659943207208653  1.0000
  H   H24       1.0  0.8354425526215428  0.6076291765822543  0.23400567949283546  1.0000
  H   H25       1.0  0.8565159876778652  0.3193149432313381  0.7937019452850056  1.0000
  H   H26       1.0  0.14348401279596334  0.6806850564228842  0.20629805446320862  1.0000
  H   H27       1.0  0.8023746964201699  0.4256346864619735  0.8991298067240845  1.0000
  H   H28       1.0  0.1976253027079374  0.5743653131939868  0.10087019302242384  1.0000
  H   H29       1.0  0.06413261883076077  0.6041996561383376  0.976042405311937  1.0000
  H   H30       1.0  0.9358673816430679  0.3958003435158846  0.023957594436277273  1.0000
  H   H31       1.0  0.7935966040214086  0.8572817903675994  0.03469145310960326  1.0000
  H   H32       1.0  0.20640339645241992  0.14271820928662268  0.965308546638611  1.0000
  H   H33       1.0  0.21716917434159405  0.9453409316668685  0.12510688642474888  1.0000
  H   H34       1.0  0.7828308261322346  0.05465906798735371  0.8748931133234654  1.0000
  H   H35       1.0  0.17616266411376963  0.14140810878064272  0.08697571016628435  1.0000
  H   H36       1.0  0.8238373350143378  0.8585918908753175  0.9130242895802241  1.0000
  H   H37       1.0  0.09082346978721828  0.9240496281667508  0.04688505107305964  1.0000
  H   H38       1.0  0.909176529604266  0.07595037162050612  0.9531149491429153  1.0000
  H   H39       1.0  0.8190274780560123  0.0879490320971478  0.18816626046906798  1.0000
  H   H40       1.0  0.18097252268119332  0.9120509676883711  0.8118337397486128  1.0000
  H   H41       1.0  0.02758174133782194  0.22656507332748482  0.18101296646328674  1.0000
  H   H42       1.0  0.9724182593196613  0.7734349276580584  0.8189870332826535  1.0000
  H   H43       1.0  0.038553326972250654  0.016798498091131424  0.21301757956247108  1.0000
  H   H44       1.0  0.9614466737649551  0.9832015016943876  0.7869824206552097  1.0000
  C   C1        1.0  0.7250773171936072  0.7191880698876011  0.5066628097749507  1.0000
  C   C2        1.0  0.274922682197877  0.28081192989965603  0.49333719044102403  1.0000
  C   C3        1.0  0.7763790235988601  0.8491447779041291  0.4628174760680268  1.0000
  C   C4        1.0  0.22362097713834556  0.15085522188138992  0.537182524149654  1.0000
  C   C5        1.0  0.8580671170764994  0.7935988849737248  0.4129248273935983  1.0000
  C   C6        1.0  0.1419328836607063  0.20640111481179418  0.5870751728240825  1.0000
  C   C7        1.0  0.910236061173998  0.9149646221845883  0.3719012992446088  1.0000
  C   C8        1.0  0.08976393795410921  0.0850353774713718  0.6280987005018995  1.0000
  C   C9        1.0  0.8819012729237523  0.09288188873079853  0.3814494560328573  1.0000
  C   C10       1.0  0.11809872781345328  0.9071181110547205  0.6185505441848235  1.0000
  C   C11       1.0  0.8001998558189007  0.1506599615247632  0.43064405491073854  1.0000
  C   C12       1.0  0.1998001435725834  0.8493400382624938  0.5693559453052363  1.0000
  C   C13       1.0  0.7471666049575011  0.02752194308632688  0.4710612835523323  1.0000
  C   C14       1.0  0.25283339577970454  0.9724780566991921  0.5289387166653485  1.0000
  C   C15       1.0  0.6181717522284355  0.4031837426938979  0.6263179370744053  1.0000
  C   C16       1.0  0.3818282468996719  0.5968162569620622  0.37368206267210297  1.0000
  C   C17       1.0  0.5857641655046857  0.2770875501625507  0.6731223058410992  1.0000
  C   C18       1.0  0.41423583388679863  0.7229124496247062  0.32687769437487557  1.0000
  C   C19       1.0  0.6243721279787736  0.10197946493180796  0.6634193384616996  1.0000
  C   C20       1.0  0.37562787141271076  0.8980205348554491  0.3365806617542752  1.0000
  C   C21       1.0  0.5946374145533774  0.9769377477120164  0.7055868764026253  1.0000
  C   C22       1.0  0.4053625845747299  0.02306225194394375  0.294413123343883  1.0000
  C   C23       1.0  0.52423129814547  0.025889245970581617  0.7585444700821179  1.0000
  C   C24       1.0  0.47576870124601445  0.9741107538166754  0.24145553013385704  1.0000
  C   C25       1.0  0.4865280712274983  0.19879828405482655  0.7694791756605187  1.0000
  C   C26       1.0  0.513471927900609  0.8012017156011336  0.2305208240859896  1.0000
  C   C27       1.0  0.5171843091820314  0.3270368126483446  0.7274397070734838  1.0000
  C   C28       1.0  0.4828156899460758  0.6729631870076155  0.2725602926730244  1.0000
  C   C29       1.0  0.2909932169593263  0.5331607726309678  0.8562249935018024  1.0000
  C   C30       1.0  0.7090067837778794  0.4668392271545511  0.14377500671587848  1.0000
  C   C31       1.0  0.14282653031708561  0.43604180552554606  0.812527821839829  1.0000
  C   C32       1.0  0.8571734701567432  0.5639581941286762  0.18747217790838536  1.0000
  C   C33       1.0  0.9692485574038022  0.39656861883511846  0.8280723582185846  1.0000
  C   C34       1.0  0.030751443070026453  0.6034313808191036  0.17192764152962967  1.0000
  C   C35       1.0  0.9382595155640531  0.45554990262865686  0.8870253172660431  1.0000
  C   C36       1.0  0.06174048490977554  0.5444500970255653  0.11297468248217114  1.0000
  C   C37       1.0  0.08394954821587067  0.554192103859341  0.9301000077652333  1.0000
  C   C38       1.0  0.9160504509122366  0.44580789579661917  0.06989999198127506  1.0000
  C   C39       1.0  0.2610776229309303  0.5914407419028678  0.9161290607131296  1.0000
  C   C40       1.0  0.7389223761971769  0.40855925775309243  0.08387093903337865  1.0000
  C   C41       1.0  0.41638743227847325  0.6866287642483073  0.9643840591472952  1.0000
  C   C42       1.0  0.5836125668496338  0.31337123540765277  0.03561594059921292  1.0000
  C   C43       1.0  0.7850245181689284  0.9208810768305443  0.08088125979626812  1.0000
  C   C44       1.0  0.2149754823049003  0.07911892282367784  0.9191187399519463  1.0000
  C   C45       1.0  0.11641677574749591  0.003899318279864661  0.09223546559374163  1.0000
  C   C46       1.0  0.8835832235642659  0.9961006827074165  0.9077645341504926  1.0000
  C   C47       1.0  0.9576643639577233  0.08820556102436786  0.17808804488151167  1.0000
  C   C48       1.0  0.042335635170384044  0.9117944386315923  0.8219119548649966  1.0000
  N   N1        1.0  0.9448764252994041  0.001527867536815565  0.11548647746765035  1.0000
  N   N2        1.0  0.0551235754378016  0.9984721322487035  0.8845135227500304  1.0000
  O   O1        1.0  0.7610406342296016  0.562619972538778  0.5024978258020546  1.0000
  O   O2        1.0  0.23895936624422714  0.43738002711544416  0.49750217394615975  1.0000
  O   O3        1.0  0.6395809968644235  0.7805315740161516  0.549992176508108  1.0000
  O   O4        1.0  0.36041900252706077  0.2194684257711053  0.45000782370786674  1.0000
  O   O5        1.0  0.5599385572096677  0.5510249617935422  0.6264863435482007  1.0000
  O   O6        1.0  0.44006144352753795  0.44897503799197674  0.3735136566694801  1.0000
  O   O7        1.0  0.7120708557335055  0.34852330097686246  0.5844998981123483  1.0000
  O   O8        1.0  0.28792914500370015  0.6514766988086567  0.41550010210533256  1.0000
  O   O9        1.0  0.5796091452878142  0.6898686094686627  0.9579117661162244  1.0000
  O   O10       1.0  0.42039085410367  0.3101313903185942  0.04208823409975037  1.0000
  O   O11       1.0  0.3662511175997705  0.7640033761959205  0.013648180732236774  1.0000
  O   O12       1.0  0.6337488831374352  0.23599662358959853  0.986351819485444  1.0000
  O   O13       1.0  0.6308101269720139  0.913870264373746  0.09770383262220805  1.0000
  O   O14       1.0  0.3691898724194704  0.08612973541351093  0.9022961675937667  1.0000
  S   S1        1.0  0.4750987272638279  0.5487210415341043  0.7422377027175242  1.0000
  S   S2        1.0  0.5249012718642794  0.45127895812185587  0.25776229702898407  1.0000
  S   S3        1.0  0.5145664144941556  0.5879734520536526  0.8387948004516099  1.0000
  S   S4        1.0  0.48543358624305005  0.4120265477318665  0.16120519976607092  1.0000
  Cl  Cl1       1.0  0.9507537156906916  0.24627733957989809  0.3316330560865811  1.0000
  Cl  Cl2       1.0  0.04924628504651395  0.753722660205621  0.6683669441310995  1.0000
