data_image0
_chemical_formula_structural       H36C32N10O10Cl2
_chemical_formula_sum              "H36 C32 N10 O10 Cl2"
_cell_length_a       7.12045142235606
_cell_length_b       10.707697281620403
_cell_length_c       12.587470866309173
_cell_angle_alpha    105.6971779075592
_cell_angle_beta     100.85694026520798
_cell_angle_gamma    100.1673286426957

_space_group_name_H-M_alt    "P 1"
_space_group_IT_number       1

loop_
  _space_group_symop_operation_xyz
  'x, y, z'

loop_
  _atom_site_type_symbol
  _atom_site_label
  _atom_site_symmetry_multiplicity
  _atom_site_fract_x
  _atom_site_fract_y
  _atom_site_fract_z
  _atom_site_occupancy
  H   H1        1.0  0.7202716469904265  0.35914755416902866  0.38069585921672466  1.0000
  H   H2        1.0  0.2797283538783437  0.640852445620799  0.6193041404139957  1.0000
  H   H3        1.0  0.5607951251597771  0.8812754180208671  0.4179115708364169  1.0000
  H   H4        1.0  0.4392048743065547  0.1187245817695357  0.5820884287996642  1.0000
  H   H5        1.0  0.6544549364836996  0.7947732372531112  0.5113500295238238  1.0000
  H   H6        1.0  0.3455450633574402  0.20522676284711716  0.48864997096432533  1.0000
  H   H7        1.0  0.9724712356908426  0.4439550562928189  0.7699135594070686  1.0000
  H   H8        1.0  0.02752876415029722  0.5560449438074095  0.23008644108108062  1.0000
  H   H9        1.0  0.11786878236293612  0.3705756091147735  0.9333838635142231  1.0000
  H   H10       1.0  0.8821312171033956  0.6294243906756292  0.06661613612185774  1.0000
  H   H11       1.0  0.07370673211356162  0.9817265924664978  0.7014649956690064  1.0000
  H   H12       1.0  0.926293267604253  0.018273408274116627  0.2985350039709134  1.0000
  H   H13       1.0  0.9105729501577411  0.051684878503176226  0.5401454168850394  1.0000
  H   H14       1.0  0.08942704930859068  0.9483151212872265  0.4598545827510415  1.0000
  H   H15       1.0  0.8046154000033795  0.210066736785577  0.46270643005215906  1.0000
  H   H16       1.0  0.1953845994629522  0.7899332630048256  0.5372935695839218  1.0000
  H   H17       1.0  0.369212329922022  0.58737727549185  0.06802884783530734  1.0000
  H   H18       1.0  0.6307876699191177  0.4126227246083785  0.931971152652842  1.0000
  H   H19       1.0  0.4439338098711795  0.3706344175429927  0.08800040236692316  1.0000
  H   H20       1.0  0.5560661895951524  0.6293655822474101  0.9119995972691579  1.0000
  H   H21       1.0  0.433249670597972  0.8208456260663195  0.21422302072415006  1.0000
  H   H22       1.0  0.5667503288683597  0.17915437372408313  0.7857769789119308  1.0000
  H   H23       1.0  0.3976670022862321  0.21198001134580707  0.30006673016984675  1.0000
  H   H24       1.0  0.6023329985825382  0.7880199884440205  0.6999332694608736  1.0000
  H   H25       1.0  0.19402971488881687  0.08815123138635414  0.1990658542085119  1.0000
  H   H26       1.0  0.8059702845775149  0.9118487684040486  0.8009341454275688  1.0000
  H   H27       1.0  0.41728195031997456  0.13099027682725486  0.1601333041224395  1.0000
  H   H28       1.0  0.5827180497726482  0.8690097242231852  0.8398666963695487  1.0000
  H   H29       1.0  0.863138420719703  0.6424833827693931  0.6812489817991411  1.0000
  H   H30       1.0  0.1368615787466287  0.3575166170210096  0.3187510178369399  1.0000
  H   H31       1.0  0.34257609357439206  0.8535165978241633  0.9420203175621693  1.0000
  H   H32       1.0  0.6574239058919398  0.14648340196623935  0.057979682073911604  1.0000
  H   H33       1.0  0.2383441009083632  0.6854013463689506  0.9329337960107834  1.0000
  H   H34       1.0  0.7616558985579684  0.3145986534214521  0.06706620362529747  1.0000
  H   H35       1.0  0.10931008568641683  0.8099919452592513  0.9723647898765239  1.0000
  H   H36       1.0  0.890689913779915  0.19000805453115138  0.027635209759557067  1.0000
  C   C1        1.0  0.9934192581607861  0.34282862626040933  0.7558075699887569  1.0000
  C   C2        1.0  0.006580741305545594  0.6571713735299933  0.24419242964732407  1.0000
  C   C3        1.0  0.07554317485613612  0.30274188301047117  0.8463279409193968  1.0000
  C   C4        1.0  0.9244568249850038  0.6972581170897574  0.15367205956875257  1.0000
  C   C5        1.0  0.10316721362814112  0.17277430884618977  0.8253911506097182  1.0000
  C   C6        1.0  0.8968327858381907  0.8272256909442129  0.17460884902636273  1.0000
  C   C7        1.0  0.04823848508713312  0.08171501994720742  0.715645164216261  1.0000
  C   C8        1.0  0.9517615161564452  0.9182849801524462  0.28435483626652774  1.0000
  C   C9        1.0  0.9608389607183071  0.12205246441029341  0.6261988205671978  1.0000
  C   C10       1.0  0.03916103912283261  0.877947535689935  0.37380117992095147  1.0000
  C   C11       1.0  0.9342871440279346  0.2523041903146877  0.6441884745768183  1.0000
  C   C12       1.0  0.06571285568988022  0.7476958104259267  0.35581152506310165  1.0000
  C   C13       1.0  0.8484304323239575  0.28798606423772277  0.5458723828130964  1.0000
  C   C14       1.0  0.15156956714237418  0.7120139355526799  0.45412761682298447  1.0000
  C   C15       1.0  0.7054581009622426  0.5505636521387594  0.46422516471473024  1.0000
  C   C16       1.0  0.2945418985040892  0.44943634765164336  0.5357748349213507  1.0000
  C   C17       1.0  0.6119686380708703  0.5633879959178648  0.35342055394551547  1.0000
  C   C18       1.0  0.3880313627978999  0.436612003871963  0.6465794456852049  1.0000
  C   C19       1.0  0.5661875888314476  0.6866339273731251  0.3443771787382277  1.0000
  C   C20       1.0  0.4338124110096922  0.3133660727271032  0.6556228217499215  1.0000
  C   C21       1.0  0.43920722035748055  0.5800879544732157  0.1504187703055595  1.0000
  C   C22       1.0  0.5607927808860976  0.4199120456264376  0.8495812301772291  1.0000
  C   C23       1.0  0.482519642113478  0.461369465154253  0.1606955017599336  1.0000
  C   C24       1.0  0.5174803587552923  0.5386305346355748  0.8393044978707868  1.0000
  C   C25       1.0  0.35515575664438337  0.11757615644300543  0.23068745174805502  1.0000
  C   C26       1.0  0.6448442431967564  0.8824238436572229  0.7693125487400944  1.0000
  C   C27       1.0  0.42410494815680805  0.008884885090786873  0.269085648718409  1.0000
  C   C28       1.0  0.5758950513095238  0.9911151146996159  0.7309143509176719  1.0000
  C   C29       1.0  0.20572437363084653  0.7765636438350682  0.9179755027624011  1.0000
  C   C30       1.0  0.7942756258354853  0.22343635595533462  0.08202449687367981  1.0000
  C   C31       1.0  0.10466760486197345  0.7448481216037564  0.7945920792554211  1.0000
  C   C32       1.0  0.8953323949791663  0.255151878496472  0.20540792123272808  1.0000
  N   N1        1.0  0.8253472661212554  0.40769501836598393  0.5568235902298556  1.0000
  N   N2        1.0  0.17465273371988432  0.5923049817342444  0.44317641025829363  1.0000
  N   N3        1.0  0.7452336443735074  0.4300518184972265  0.4591232699924265  1.0000
  N   N4        1.0  0.2547663554676324  0.5699481816030019  0.5408767304957228  1.0000
  N   N5        1.0  0.6021005355374395  0.7981235215553555  0.43162688631831864  1.0000
  N   N6        1.0  0.39789946392889236  0.2018764782350474  0.5683731133177623  1.0000
  N   N7        1.0  0.48063773341247834  0.690130867993138  0.23939161875881013  1.0000
  N   N8        1.0  0.5193622664286613  0.3098691321070903  0.760608381729339  1.0000
  N   N9        1.0  0.5698511847246858  0.45526306879509143  0.26220189975625374  1.0000
  N   N10       1.0  0.430148814741646  0.5447369309953113  0.7377980998798271  1.0000
  O   O1        1.0  0.7416362232751701  0.6443931483176257  0.5562014520983557  1.0000
  O   O2        1.0  0.25836377656596965  0.35560685178260265  0.4437985483897935  1.0000
  O   O3        1.0  0.498852345046653  0.021845778345060615  0.36998219840896446  1.0000
  O   O4        1.0  0.5011476561969253  0.9781542217545927  0.6300178020738243  1.0000
  O   O5        1.0  0.39266949294794234  0.8964117027990498  0.18430311327760118  1.0000
  O   O6        1.0  0.6073305065183894  0.10358829699135293  0.8156968863584797  1.0000
  O   O7        1.0  0.9271027309790371  0.6613674299492868  0.7652085941165836  1.0000
  O   O8        1.0  0.07289726886210264  0.3386325701509416  0.2347914063715656  1.0000
  O   O9        1.0  0.17748706624455302  0.7898788340345072  0.7269645908586069  1.0000
  O   O10       1.0  0.8225129335965867  0.2101211660657211  0.27303540962954226  1.0000
  Cl  Cl1       1.0  0.20332868917301478  0.12289277460761537  0.9390159433940678  1.0000
  Cl  Cl2       1.0  0.7966713116957554  0.8771072251822122  0.06098405623665259  1.0000
