data_image0
_chemical_formula_structural       H102C88N12O6F8I2
_chemical_formula_sum              "H102 C88 N12 O6 F8 I2"
_cell_length_a       5.757016922462463
_cell_length_b       18.898948437203995
_cell_length_c       20.5243505101071
_cell_angle_alpha    67.37424007694037
_cell_angle_beta     83.04261520821977
_cell_angle_gamma    86.89324668817764

_space_group_name_H-M_alt    "P 1"
_space_group_IT_number       1

loop_
  _space_group_symop_operation_xyz
  'x, y, z'

loop_
  _atom_site_type_symbol
  _atom_site_label
  _atom_site_symmetry_multiplicity
  _atom_site_fract_x
  _atom_site_fract_y
  _atom_site_fract_z
  _atom_site_occupancy
  H   H1        1.0  0.7715442952860248  0.2785954464216479  0.5389491892629373  1.0000
  H   H2        1.0  0.22845570384783762  0.7214045534193043  0.4610508108198846  1.0000
  H   H3        1.0  0.9929198325680137  0.10917072533513225  0.855885557994888  1.0000
  H   H4        1.0  0.007080168209598331  0.8908292750359623  0.14411444208690793  1.0000
  H   H5        1.0  0.1074712264827164  0.05644689786648608  0.9382502701234714  1.0000
  H   H6        1.0  0.8925287726511459  0.9435531019744661  0.06174972995935055  1.0000
  H   H7        1.0  0.7050543836243244  0.05272180564100228  0.0024283192360413696  1.0000
  H   H8        1.0  0.29494561724587826  0.9472781941989754  0.997571680848708  1.0000
  H   H9        1.0  0.5932681561158983  0.10418181903212383  0.9206782288328321  1.0000
  H   H10       1.0  0.40673184292537373  0.8958181813399455  0.07932177124703635  1.0000
  H   H11       1.0  0.9687345818534606  0.16349412917593087  0.9814022270022531  1.0000
  H   H12       1.0  0.031265417280401546  0.8365058706650214  0.018597773080568817  1.0000
  H   H13       1.0  0.854538459082066  0.21521616442721112  0.9000354696279121  1.0000
  H   H14       1.0  0.14546154015642762  0.7847838361606135  0.09996452992096462  1.0000
  H   H15       1.0  0.45154415259178665  0.20749135632881313  0.9655414600617841  1.0000
  H   H16       1.0  0.5484558465420756  0.792508643512139  0.034458540021037896  1.0000
  H   H17       1.0  0.5692835286614155  0.15595102103545191  0.046385055503026414  1.0000
  H   H18       1.0  0.4307164704724466  0.8440489788055002  0.9536149445797956  1.0000
  H   H19       1.0  0.7159926561203592  0.3190613206575389  0.9467962480631322  1.0000
  H   H20       1.0  0.2840073447498432  0.6809386791824387  0.05320375202161722  1.0000
  H   H21       1.0  0.8103464102370993  0.2669450516869177  0.030934472346437918  1.0000
  H   H22       1.0  0.18965359063310308  0.7330549481530599  0.9690655277383116  1.0000
  H   H23       1.0  0.30644327537797045  0.31926261881829354  0.00045977323823411106  1.0000
  H   H24       1.0  0.6935567237558918  0.6807373810226586  0.9995402268445879  1.0000
  H   H25       1.0  0.38409476294715106  0.2599023854723645  0.0850475177751125  1.0000
  H   H26       1.0  0.6159052360941211  0.7400976148997046  0.9149524823047558  1.0000
  H   H27       1.0  0.5880479307258477  0.41991852032644716  0.0005071123904279978  1.0000
  H   H28       1.0  0.41195206860523603  0.5800814797302604  0.9994928871614024  1.0000
  H   H29       1.0  0.6318511720992926  0.35992783307999643  0.08836447062152164  1.0000
  H   H30       1.0  0.36814882867831983  0.640072167291098  0.9116355294602743  1.0000
  H   H31       1.0  0.3277472800279373  0.45769760516887664  0.09131357157315115  1.0000
  H   H32       1.0  0.672252719105925  0.5423023946720755  0.9086864285096707  1.0000
  H   H33       1.0  0.1904528486513474  0.36727159605222265  0.12363600525133393  1.0000
  H   H34       1.0  0.8095471505871463  0.632728404535602  0.8763639942975429  1.0000
  H   H35       1.0  0.16226753282762235  0.43290973345271655  0.035730601671819504  1.0000
  H   H36       1.0  0.8377324680425802  0.5670902663872609  0.9642693984129299  1.0000
  H   H37       1.0  0.696124160177676  0.5761489737782587  0.7170795573336536  1.0000
  H   H38       1.0  0.30387584059993644  0.42385102659283586  0.2829204427481424  1.0000
  H   H39       1.0  0.3814662714145964  0.6424645986732282  0.7684587861404224  1.0000
  H   H40       1.0  0.6185337277192661  0.35753540116772387  0.23154121394239954  1.0000
  H   H41       1.0  0.04044981265477012  0.7954642083739203  0.8435667389317556  1.0000
  H   H42       1.0  0.9595501882154325  0.2045357914660571  0.15643326115299377  1.0000
  H   H43       1.0  0.7784414585549962  0.8707813774032238  0.9001291959560582  1.0000
  H   H44       1.0  0.2215585423152062  0.12921862243675378  0.09987080412869125  1.0000
  H   H45       1.0  0.17196544101821384  0.7476434045167324  0.679929670076275  1.0000
  H   H46       1.0  0.8280345581156485  0.2523565953242198  0.3200703300065469  1.0000
  H   H47       1.0  0.8795676835972464  0.8195622767867266  0.7318835733268463  1.0000
  H   H48       1.0  0.1204323155366159  0.18043772305422576  0.26811642675597563  1.0000
  H   H49       1.0  0.5667304467690284  0.9696741624724473  0.782574119985362  1.0000
  H   H50       1.0  0.4332695523648337  0.030325837368505023  0.21742588009745997  1.0000
  H   H51       1.0  0.3114064881438638  0.043282544894711825  0.8398719253750143  1.0000
  H   H52       1.0  0.6885935109899983  0.9567174549462404  0.16012807470780757  1.0000
  H   H53       1.0  0.9628683915914998  0.8635152835225204  0.26464734118293504  1.0000
  H   H54       1.0  0.03713160918611245  0.1364847168485741  0.7353526588988607  1.0000
  H   H55       1.0  0.08715567075128816  0.8166470296607089  0.34631375596216096  1.0000
  H   H56       1.0  0.9128443282899841  0.1833529707113604  0.6536862441177074  1.0000
  H   H57       1.0  0.48635830991892703  0.8367672981378733  0.2823413143535459  1.0000
  H   H58       1.0  0.5136416892149352  0.16323270170307885  0.717658685729276  1.0000
  H   H59       1.0  0.3702896856794787  0.8872802492322929  0.2003676261437275  1.0000
  H   H60       1.0  0.6297103134543834  0.11271975060865952  0.7996323739390945  1.0000
  H   H61       1.0  0.1552735928791981  0.7681896899959264  0.2154857914490054  1.0000
  H   H62       1.0  0.8447264064518857  0.23181031006078126  0.7845142081028249  1.0000
  H   H63       1.0  0.2648382146792204  0.7193881390909405  0.2972516573011986  1.0000
  H   H64       1.0  0.7351617861909819  0.2806118607490368  0.7027483427835508  1.0000
  H   H65       1.0  0.5700235824584441  0.7848690633559321  0.15417814493368198  1.0000
  H   H66       1.0  0.42997641687263954  0.21513093670077543  0.8458218546181484  1.0000
  H   H67       1.0  0.6745115177867593  0.7349163248641166  0.23722141619660528  1.0000
  H   H68       1.0  0.3254884813471029  0.2650836749768355  0.7627785838862167  1.0000
  H   H69       1.0  0.4321375688544528  0.6205852839598649  0.2532172161353915  1.0000
  H   H70       1.0  0.5678624302794094  0.3794147158810872  0.7467827839474305  1.0000
  H   H71       1.0  0.3387859938367731  0.6702428550910762  0.16884273132374542  1.0000
  H   H72       1.0  0.6612140070334294  0.3297571447489012  0.831157268761004  1.0000
  H   H73       1.0  0.8439085204658825  0.6224526528850715  0.20122432892802602  1.0000
  H   H74       1.0  0.15609148040432008  0.37754734695490594  0.7987756711567233  1.0000
  H   H75       1.0  0.7677899065473297  0.6791521903834749  0.11560368102036772  1.0000
  H   H76       1.0  0.23221009258653252  0.32084780945747726  0.8843963190624543  1.0000
  H   H77       1.0  0.5757522896314861  0.518784146928213  0.2060308622800792  1.0000
  H   H78       1.0  0.42424770940978623  0.4812158534438563  0.7939691377997892  1.0000
  H   H79       1.0  0.5176311248084184  0.5739970889020282  0.11827334825435919  1.0000
  H   H80       1.0  0.4823688742328538  0.4260029114700411  0.8817266518255092  1.0000
  H   H81       1.0  0.8288331284267495  0.4761186858363245  0.11854077187478106  1.0000
  H   H82       1.0  0.17116687235086278  0.52388131453477  0.8814592282070147  1.0000
  H   H83       1.0  0.00040392094651849503  0.5106308572073986  0.16617836141818562  1.0000
  H   H84       1.0  0.9995960799236839  0.4893691426325787  0.8338216386665638  1.0000
  H   H85       1.0  0.9532617376942247  0.5687385133725426  0.07727597221955265  1.0000
  H   H86       1.0  0.046738263175977665  0.4312614864674348  0.9227240278651968  1.0000
  H   H87       1.0  0.21140107318425147  0.3369816508463299  0.47354007924262126  1.0000
  H   H88       1.0  0.7885989275933609  0.6630183495247646  0.5264599208391746  1.0000
  H   H89       1.0  0.5294360919455786  0.270891084170985  0.4230995503502183  1.0000
  H   H90       1.0  0.47056390718828356  0.7291089156699672  0.5769004497326037  1.0000
  H   H91       1.0  0.8953922754713718  0.12157013165873923  0.3684723972822256  1.0000
  H   H92       1.0  0.1046077236624904  0.8784298681822129  0.6315276028005964  1.0000
  H   H93       1.0  0.20041865950083343  0.057118363419176824  0.3122182332883485  1.0000
  H   H94       1.0  0.799581341369369  0.9428816364208007  0.6877817667964009  1.0000
  H   H95       1.0  0.7605326191245505  0.15570669698907244  0.526258582836757  1.0000
  H   H96       1.0  0.23946738000931178  0.8442933028518798  0.473741417246065  1.0000
  H   H97       1.0  0.06119207754394938  0.08032354416113938  0.4795722116280602  1.0000
  H   H98       1.0  0.9388079233262531  0.919676455678838  0.5204277884566892  1.0000
  H   H99       1.0  0.4133771719363008  0.9416538047019585  0.40466627913449177  1.0000
  H   H100      1.0  0.5866228271975616  0.05834619513899355  0.5953337209483301  1.0000
  H   H101      1.0  0.7160091172819282  0.8740061623771518  0.35290954009390124  1.0000
  H   H102      1.0  0.2839908837854956  0.12599383767858108  0.6470904594598567  1.0000
  C   C1        1.0  0.3589100464896432  0.4665134945042558  0.6176955672663023  1.0000
  C   C2        1.0  0.6410899525516289  0.5334865058678135  0.38230443281356613  1.0000
  C   C3        1.0  0.22837132775974264  0.4003308739730409  0.6359704219486269  1.0000
  C   C4        1.0  0.7716286713741196  0.5996691258679113  0.364029578134195  1.0000
  C   C5        1.0  0.31370207804798794  0.33906520103932014  0.6187402397042281  1.0000
  C   C6        1.0  0.6862979228222144  0.6609347988006574  0.38125976038052134  1.0000
  C   C7        1.0  0.5367019825323844  0.33940777686763424  0.5822110711199081  1.0000
  C   C8        1.0  0.4632980166014776  0.6605922229733181  0.4177889289629138  1.0000
  C   C9        1.0  0.6675224620093245  0.4063074407916028  0.5637631543246072  1.0000
  C   C10       1.0  0.3324775371245377  0.5936925590493494  0.4362368457582147  1.0000
  C   C11       1.0  0.5802963925092908  0.4678048667751769  0.5812416771415917  1.0000
  C   C12       1.0  0.4197036066245714  0.5321951330657753  0.4187583229412303  1.0000
  C   C13       1.0  0.6055697039651041  0.737685782322653  0.7527096017902175  1.0000
  C   C14       1.0  0.39443029690509823  0.2623142175173245  0.24729039829453203  1.0000
  C   C15       1.0  0.3216042106534677  0.8776106667378125  0.8099472488536179  1.0000
  C   C16       1.0  0.6783957886776161  0.12238933331889519  0.19005275069821245  1.0000
  C   C17       1.0  0.028469136527324485  0.9610202471192107  0.8739948260924658  1.0000
  C   C18       1.0  0.9715308625139476  0.038979753252858414  0.12600517398740257  1.0000
  C   C19       1.0  0.9488929655849441  0.06709879558919973  0.9103825867202028  1.0000
  C   C20       1.0  0.05110703528525825  0.9329012042507775  0.08961741336454665  1.0000
  C   C21       1.0  0.7499970012873415  0.09625193767994733  0.948793492466616  1.0000
  C   C22       1.0  0.25000299784652086  0.9037480621610049  0.05120650761620586  1.0000
  C   C23       1.0  0.8106684859953635  0.17153343341847999  0.9537503461754352  1.0000
  C   C24       1.0  0.18933151324313013  0.8284665671693446  0.04624965337344166  1.0000
  C   C25       1.0  0.6100589237675873  0.20048892342295105  0.9929277929843963  1.0000
  C   C26       1.0  0.389941075366275  0.7995110764180011  0.007072207098425804  1.0000
  C   C27       1.0  0.6606644119173632  0.27552087345518556  0.9997741754608872  1.0000
  C   C28       1.0  0.3393355888602493  0.7244791269159089  0.00022582462090877867  1.0000
  C   C29       1.0  0.4501116497942725  0.30570855407843883  0.03454782004476009  1.0000
  C   C30       1.0  0.54988835107593  0.6942914457615386  0.9654521800399894  1.0000
  C   C31       1.0  0.5030030716704259  0.3761373910348366  0.04931813476725919  1.0000
  C   C32       1.0  0.4969969273708463  0.6238626093372326  0.950681865312609  1.0000
  C   C33       1.0  0.2844691347018662  0.41044591188450225  0.07641394225180514  1.0000
  C   C34       1.0  0.7155308661683363  0.589554087955475  0.9235860578329443  1.0000
  C   C35       1.0  0.7303242436019453  0.6304808103448641  0.7211568827567773  1.0000
  C   C36       1.0  0.2696757572682571  0.3695191894951132  0.27884311732797223  1.0000
  C   C37       1.0  0.554591584003846  0.6675742974684563  0.7492860423051371  1.0000
  C   C38       1.0  0.4454084168663564  0.33242570237152114  0.25071395777961236  1.0000
  C   C39       1.0  0.09640753372652983  0.8498725768172147  0.8428896988098019  1.0000
  C   C40       1.0  0.9035924654073325  0.15012742302373755  0.15711030127302006  1.0000
  C   C41       1.0  0.9520451270446815  0.8911780690703244  0.8742277547199069  1.0000
  C   C42       1.0  0.04795487373293081  0.10882193130077003  0.1257722453618891  1.0000
  C   C43       1.0  0.9953639693594076  0.7256655855666706  0.7004961241917478  1.0000
  C   C44       1.0  0.00463602977445455  0.2743344142742816  0.2995038758910742  1.0000
  C   C45       1.0  0.8331293680659657  0.766375999199694  0.7283743275767129  1.0000
  C   C46       1.0  0.16687063271164645  0.23362400117140064  0.2716256725050829  1.0000
  C   C47       1.0  0.3943588501675842  0.947952893440349  0.8087184759823142  1.0000
  C   C48       1.0  0.605641148966278  0.052047106400603144  0.19128152410050783  1.0000
  C   C49       1.0  0.2503820858868594  0.9894654326148113  0.8407868136203114  1.0000
  C   C50       1.0  0.7496179134442242  0.01053456744189601  0.1592131859315191  1.0000
  C   C51       1.0  0.31868416243583997  0.17046166946020483  0.4468660348201844  1.0000
  C   C52       1.0  0.6813158366054323  0.8295383309118644  0.5531339652596841  1.0000
  C   C53       1.0  0.634981838038645  0.035988494159225545  0.3892827153492593  1.0000
  C   C54       1.0  0.3650181612924387  0.9640115058974821  0.6107172842025711  1.0000
  C   C55       1.0  0.9762100581168969  0.9627886205314087  0.3277767519661041  1.0000
  C   C56       1.0  0.023789942753305614  0.03721137930856878  0.6722232481186453  1.0000
  C   C57       1.0  0.11883053997938262  0.860068458713001  0.2922006775284557  1.0000
  C   C58       1.0  0.8811694591544798  0.13993154112795114  0.7077993225543663  1.0000
  C   C59       1.0  0.33585686470096304  0.8404791772475053  0.2527796839892543  1.0000
  C   C60       1.0  0.6641431361692394  0.15952082259247205  0.7472203160954951  1.0000
  C   C61       1.0  0.3076193095348415  0.7646338255836294  0.24456152861766345  1.0000
  C   C62       1.0  0.6923806895990207  0.2353661742573227  0.7554384714651585  1.0000
  C   C63       1.0  0.5236074562349115  0.7400304858050389  0.2072598084883153  1.0000
  C   C64       1.0  0.4763925428989507  0.2599695140359132  0.7927401915945067  1.0000
  C   C65       1.0  0.48687084762325666  0.664009746286656  0.2001979786351946  1.0000
  C   C66       1.0  0.5131291515106053  0.3359902535542961  0.7998020214476275  1.0000
  C   C67       1.0  0.7017330201229117  0.6342900319192069  0.1668022291195031  1.0000
  C   C68       1.0  0.2982669789183604  0.36570996845286236  0.8331977709603653  1.0000
  C   C69       1.0  0.6522424699556293  0.5615753099589583  0.15520780961904704  1.0000
  C   C70       1.0  0.3477575309145732  0.4384246898810192  0.8447921904657023  1.0000
  C   C71       1.0  0.8700151939781794  0.5273731506820156  0.1277675745085428  1.0000
  C   C72       1.0  0.12998480515568292  0.4726268491589366  0.8722324255742792  1.0000
  C   C73       1.0  0.18546541111844062  0.2802606796288326  0.47375284243088883  1.0000
  C   C74       1.0  0.8145345879228315  0.7197393207432365  0.5262471576489796  1.0000
  C   C75       1.0  0.36119890514019964  0.24332706099220175  0.4456797801985779  1.0000
  C   C76       1.0  0.6388010957300029  0.7566729388477758  0.5543202198861715  1.0000
  C   C77       1.0  0.8594195853286494  0.06814879099613767  0.36356031549273016  1.0000
  C   C78       1.0  0.1405804155415532  0.9318512088438398  0.6364396845920193  1.0000
  C   C79       1.0  0.02711463276753934  0.03253240344415457  0.3329151241777246  1.0000
  C   C80       1.0  0.9728853663663231  0.9674675963967976  0.6670848759050974  1.0000
  C   C81       1.0  0.9343574866772587  0.17845671267185073  0.503051309457737  1.0000
  C   C82       1.0  0.06564251245660349  0.8215432871691014  0.49694869062508495  1.0000
  C   C83       1.0  0.09863779174153764  0.13721782787935008  0.4768059689714757  1.0000
  C   C84       1.0  0.9013622090360747  0.8627821724917445  0.5231940311103201  1.0000
  C   C85       1.0  0.5870692124463618  0.9659694396716325  0.38479859168673514  1.0000
  C   C86       1.0  0.41293078842384073  0.03403056016834492  0.6152014083980143  1.0000
  C   C87       1.0  0.7556307543609388  0.9287995725603324  0.3547410563464302  1.0000
  C   C88       1.0  0.24436924497014487  0.07120042749637528  0.6452589432054001  1.0000
  N   N1        1.0  0.9471635085028609  0.6584688150654474  0.6968738055847626  1.0000
  N   N2        1.0  0.05283649236734136  0.34153118477453004  0.30312619449998685  1.0000
  N   N3        1.0  0.42570479877552253  0.7742874790063644  0.7821182018540167  1.0000
  N   N4        1.0  0.5742952003583396  0.22571252083458795  0.21788179822880532  1.0000
  N   N5        1.0  0.4857558119932  0.8395541867064248  0.7789971629967424  1.0000
  N   N6        1.0  0.5142441888770025  0.1604458131335527  0.22100283708800691  1.0000
  N   N7        1.0  0.9753517630842155  0.24850778819791536  0.5019792828713736  1.0000
  N   N8        1.0  0.024648236049646794  0.7514922116430368  0.4980207172114484  1.0000
  N   N9        1.0  0.5033405748707933  0.13588782739242478  0.41766884227033857  1.0000
  N   N10       1.0  0.4966594244602905  0.8641121726642826  0.5823311572814919  1.0000
  N   N11       1.0  0.4540431915655633  0.07043086156563208  0.41862679760269655  1.0000
  N   N12       1.0  0.5459568075682989  0.9295691382753202  0.5813732024801255  1.0000
  O   O1        1.0  0.6078018959837106  0.27707120780639577  0.5697821039714324  1.0000
  O   O2        1.0  0.3921981031501515  0.7229287920345565  0.4302178961113897  1.0000
  O   O3        1.0  0.8760251050254766  0.9964162973287938  0.9077497827997008  1.0000
  O   O4        1.0  0.12397489604194738  0.003583702726938965  0.09225021675405708  1.0000
  O   O5        1.0  0.1534925070734092  0.933314680197223  0.29604971233645644  1.0000
  O   O6        1.0  0.8465074937967934  0.06668531964275454  0.703950287748293  1.0000
  F   F1        1.0  0.012190720292633224  0.3939609366712946  0.6725310030334553  1.0000
  F   F2        1.0  0.9878092805775691  0.6060390631686827  0.32746899705129423  1.0000
  F   F3        1.0  0.18088245410956014  0.27515096670764444  0.6388573824033468  1.0000
  F   F4        1.0  0.8191175466680523  0.7248490336634501  0.361142617678449  1.0000
  F   F5        1.0  0.8862907834767323  0.40973399771377833  0.529437407472282  1.0000
  F   F6        1.0  0.11370921565712996  0.5902660021271738  0.47056259261054  1.0000
  F   F7        1.0  0.7188387706547777  0.529865140167238  0.5623250223471439  1.0000
  F   F8        1.0  0.28116122847908454  0.4701348596737143  0.43767497773567804  1.0000
  I   I1        1.0  0.21625862078981184  0.5571143650639798  0.6468857287252627  1.0000
  I   I2        1.0  0.7837413783440503  0.44288563477697224  0.3531142713575592  1.0000
