data_image0
_chemical_formula_structural       H108C92N36O12S12
_chemical_formula_sum              "H108 C92 N36 O12 S12"
_cell_length_a       10.899113368043528
_cell_length_b       17.235382584989388
_cell_length_c       14.471328331639954
_cell_angle_alpha    90.0
_cell_angle_beta     106.55144543500053
_cell_angle_gamma    90.0

_space_group_name_H-M_alt    "P 1"
_space_group_IT_number       1

loop_
  _space_group_symop_operation_xyz
  'x, y, z'

loop_
  _atom_site_type_symbol
  _atom_site_label
  _atom_site_symmetry_multiplicity
  _atom_site_fract_x
  _atom_site_fract_y
  _atom_site_fract_z
  _atom_site_occupancy
  H   H1        1.0  0.01600975362915236  0.3957026544882003  0.15270853868018844  1.0000
  H   H2        1.0  0.4839902457083277  0.8957026543434576  0.34729146061843574  1.0000
  H   H3        1.0  0.9839902459958946  0.6042973458025164  0.8472914608170011  1.0000
  H   H4        1.0  0.5160097539167193  0.10429734594725892  0.6527085388787538  1.0000
  H   H5        1.0  0.9848030404092336  0.3871380259241346  0.5765240924764824  1.0000
  H   H6        1.0  0.5151969595033804  0.8871380257793919  0.9234759072192726  1.0000
  H   H7        1.0  0.015196959215813472  0.612861974366582  0.4234759070207072  1.0000
  H   H8        1.0  0.48480304012166664  0.11286197451132458  0.07652409227791693  1.0000
  H   H9        1.0  0.7666416934524837  0.44249531116542345  0.18457241338789332  1.0000
  H   H10       1.0  0.7333583066966741  0.942495311020681  0.31542758671015403  1.0000
  H   H11       1.0  0.2333583061655095  0.5575046891252932  0.8154275867987856  1.0000
  H   H12       1.0  0.2666416938784597  0.057504689270035735  0.6845724136869766  1.0000
  H   H13       1.0  0.9363503811997744  0.5056952253320327  0.40584810522152764  1.0000
  H   H14       1.0  0.5636496179922427  0.005695225476775248  0.09415189466606791  1.0000
  H   H15       1.0  0.06364961842527254  0.4943047749586839  0.594151894275662  1.0000
  H   H16       1.0  0.43635038162575046  0.9943047748139414  0.905848105520611  1.0000
  H   H17       1.0  0.18524412025258402  0.5106825494936015  0.3059508696600126  1.0000
  H   H18       1.0  0.31475587908489605  0.010682549638344066  0.19404912963861157  1.0000
  H   H19       1.0  0.814755879372463  0.48931745079711514  0.6940491298371769  1.0000
  H   H20       1.0  0.685244120540151  0.9893174506523724  0.805950869858578  1.0000
  H   H21       1.0  0.32612327536043706  0.44022777345297154  0.5291977708421474  1.0000
  H   H22       1.0  0.17387672469058596  0.9402277733082289  0.9708022289541256  1.0000
  H   H23       1.0  0.6738767252146969  0.559772226837745  0.4708022295549835  1.0000
  H   H24       1.0  0.826123274934461  0.05977222698248762  0.02919777054306393  1.0000
  H   H25       1.0  0.7383528657545226  0.6565462387736701  0.9885194318466358  1.0000
  H   H26       1.0  0.7616471341510375  0.1565462389184128  0.5114805685386086  1.0000
  H   H27       1.0  0.2616471338634706  0.3434537609368446  0.01148056834004319  1.0000
  H   H28       1.0  0.23835286642409637  0.8434537613723038  0.4885194318585222  1.0000
  H   H29       1.0  0.7207657315275873  0.38409254841638757  0.03502740018567372  1.0000
  H   H30       1.0  0.77923426766443  0.884092548271645  0.4649725997019218  1.0000
  H   H31       1.0  0.27923426809040597  0.6159074512941272  0.9649726000010053  1.0000
  H   H32       1.0  0.220765731960617  0.11590745143886981  0.5350273997952678  1.0000
  H   H33       1.0  0.5664626109206174  0.4105067308550468  0.9577571496985403  1.0000
  H   H34       1.0  0.9335373889849427  0.9105067307103043  0.542242850686704  1.0000
  H   H35       1.0  0.4335373896545164  0.5894932694356697  0.042242850698590524  1.0000
  H   H36       1.0  0.06646261063305056  0.08949326958041237  0.45775714949997487  1.0000
  H   H37       1.0  0.599003453912876  0.4155231753449591  0.08574995342160044  1.0000
  H   H38       1.0  0.9009965462433357  0.9155231752002164  0.41425004598695764  1.0000
  H   H39       1.0  0.4009965457121709  0.5844768249457575  0.9142500460755891  1.0000
  H   H40       1.0  0.09900345433885208  0.0844768245102983  0.5857499537206838  1.0000
  H   H41       1.0  0.3224215892386892  0.40668610316225917  0.6671530463094227  1.0000
  H   H42       1.0  0.17757841081233378  0.9066861035977184  0.8328469534868502  1.0000
  H   H43       1.0  0.6775784113364447  0.5933138965482556  0.3328469540877081  1.0000
  H   H44       1.0  0.8224215888127132  0.0933138966929982  0.1671530460103393  1.0000
  H   H45       1.0  0.4527312575280242  0.4039730267469596  0.7749235073270322  1.0000
  H   H46       1.0  0.04726874252299884  0.903973026602217  0.7250764924692407  1.0000
  H   H47       1.0  0.5472687430541635  0.596026973543757  0.22507649238060928  1.0000
  H   H48       1.0  0.9527312570949944  0.09602697368849959  0.2749235077174382  1.0000
  H   H49       1.0  0.47787464030842575  0.3801733165880886  0.6615606967163973  1.0000
  H   H50       1.0  0.02212535973554345  0.880173316443346  0.8384393037693648  1.0000
  H   H51       1.0  0.5221253602667081  0.619826683702628  0.3384393036807334  1.0000
  H   H52       1.0  0.9778746398824498  0.11982668326716878  0.16156069641731396  1.0000
  H   H53       1.0  0.5346012113090806  0.6507487451870164  0.6843716235885905  1.0000
  H   H54       1.0  0.9653987886035333  0.15074874533175903  0.8156283761071644  1.0000
  H   H55       1.0  0.4653987883159665  0.3492512545234983  0.31562837590859905  1.0000
  H   H56       1.0  0.034601211978654324  0.8492512543787557  0.18437162360047696  1.0000
  H   H57       1.0  0.7113956884487266  0.2620973185668789  0.20710475331574812  1.0000
  H   H58       1.0  0.7886043117004313  0.7620973184221363  0.2928952467822993  1.0000
  H   H59       1.0  0.28860431116926666  0.7379026811436359  0.7928952468709307  1.0000
  H   H60       1.0  0.21139568888175636  0.2379026812883785  0.7071047529253421  1.0000
  H   H61       1.0  0.9043932144936462  0.261401372309762  0.5126507424149263  1.0000
  H   H62       1.0  0.5956067863761084  0.7614013721650194  0.9873492574912806  1.0000
  H   H63       1.0  0.09560678608148768  0.7385986279809545  0.4873492579822045  1.0000
  H   H64       1.0  0.40439321420607927  0.23859862754549535  0.01265074221636086  1.0000
  H   H65       1.0  0.668195269208457  0.725153276892443  0.8286100540755493  1.0000
  H   H66       1.0  0.8318047307041572  0.2251532770371856  0.6713899456202056  1.0000
  H   H67       1.0  0.3318047304165901  0.27484672281807176  0.1713899454216402  1.0000
  H   H68       1.0  0.16819526892088998  0.7748467226733292  0.3286100538769839  1.0000
  H   H69       1.0  0.7829852307145237  0.18916091325059536  0.3618335871018151  1.0000
  H   H70       1.0  0.7170147684774935  0.6891609131058528  0.13816641278578037  1.0000
  H   H71       1.0  0.21701476890346946  0.8108390864599194  0.6381664130848637  1.0000
  H   H72       1.0  0.28298523114755353  0.31083908660466203  0.8618335867114092  1.0000
  H   H73       1.0  0.028775492985358492  0.26880018573158077  0.2212546592519708  1.0000
  H   H74       1.0  0.4712245073022084  0.7688001855868382  0.2787453409465946  1.0000
  H   H75       1.0  0.9712245075897755  0.7311998139789341  0.7787453411451599  1.0000
  H   H76       1.0  0.5287754932729255  0.23119981412367663  0.7212546594505361  1.0000
  H   H77       1.0  0.2480785285825385  0.2586580923293583  0.5220716697460128  1.0000
  H   H78       1.0  0.2519214714614307  0.7586580921846158  0.9779283307397495  1.0000
  H   H79       1.0  0.7519214710354546  0.7413419079613582  0.4779283304406661  1.0000
  H   H80       1.0  0.7480785291137032  0.24134190810610082  0.02207166965738126  1.0000
  H   H81       1.0  0.11179189391761031  0.19179980332313787  0.37402676757605086  1.0000
  H   H82       1.0  0.3882081054128159  0.6917998031783953  0.12597323241206265  1.0000
  H   H83       1.0  0.888208105700383  0.8082001969675787  0.6259732326106281  1.0000
  H   H84       1.0  0.6117918942051772  0.30820019653211955  0.8740267677746163  1.0000
  H   H85       1.0  0.06527141294505683  0.24274508032352887  0.9809818547158665  1.0000
  H   H86       1.0  0.4347285871059661  0.7427450801787863  0.5190181450804064  1.0000
  H   H87       1.0  0.9347285866799901  0.7572549199671876  0.019018144781323024  1.0000
  H   H88       1.0  0.5652714134691678  0.2572549201119303  0.48098185531672444  1.0000
  H   H89       1.0  0.04190858594292826  0.2901762995592406  0.8660955871281838  1.0000
  H   H90       1.0  0.458091414101041  0.790176299414498  0.6339044133575785  1.0000
  H   H91       1.0  0.9580914136750649  0.7098237007314759  0.1339044130584951  1.0000
  H   H92       1.0  0.541908586474093  0.20982370029601677  0.36609558703955225  1.0000
  H   H93       1.0  0.905401341779057  0.2563111180280609  0.9029060916733334  1.0000
  H   H94       1.0  0.594598658133557  0.7563111178833183  0.5970939080224215  1.0000
  H   H95       1.0  0.09459865783893621  0.7436888822626557  0.09709390851334547  1.0000
  H   H96       1.0  0.4054013414914901  0.2436888824073983  0.4029060914747681  1.0000
  H   H97       1.0  0.7850462598232324  0.3794199611034643  0.8673450367288223  1.0000
  H   H98       1.0  0.7149537400893816  0.8794199609587217  0.6326549629669325  1.0000
  H   H99       1.0  0.21495373979476082  0.6205800391872522  0.13265496345785652  1.0000
  H   H100      1.0  0.2850462595356655  0.12058003875179307  0.367345036530257  1.0000
  H   H101      1.0  0.9107393384067819  0.414697985655675  0.8198164100200072  1.0000
  H   H102      1.0  0.5892606624629727  0.9146979855109324  0.6801835898861998  1.0000
  H   H103      1.0  0.08926066216835189  0.5853020146350416  0.18018359037712367  1.0000
  H   H104      1.0  0.410739338119215  0.08530201477978419  0.3198164098214417  1.0000
  H   H105      1.0  0.8543971122735176  0.4742017631287197  0.9014212436023279  1.0000
  H   H106      1.0  0.6456028876320427  0.9742017629839772  0.5985787567829165  1.0000
  H   H107      1.0  0.1456028873444757  0.525798236581795  0.09857875658435118  1.0000
  H   H108      1.0  0.35439711294309123  0.02579823672653761  0.4014212436142142  1.0000
  C   C1        1.0  0.6468279683766976  0.5492591228142922  0.9300465912872313  1.0000
  C   C2        1.0  0.8531720315288626  0.04925912295903484  0.5699534090980128  1.0000
  C   C3        1.0  0.35317203219843624  0.45074087689622255  0.06995340910989936  1.0000
  C   C4        1.0  0.1468279680891307  0.9507408773316818  0.43004659108866605  1.0000
  C   C5        1.0  0.6842253446048937  0.5059773084233726  0.022187418443980034  1.0000
  C   C6        1.0  0.8157746555442641  0.005977308568115166  0.47781258165406737  1.0000
  C   C7        1.0  0.3157746550130995  0.49402269128714216  0.9778125817426989  1.0000
  C   C8        1.0  0.1842253450308697  0.9940226917226014  0.5221874187430634  1.0000
  C   C9        1.0  0.8626832974592983  0.5320395688800224  0.2639464987241462  1.0000
  C   C10       1.0  0.6373167026898597  0.03203956902476499  0.23605350137390121  1.0000
  C   C11       1.0  0.13731670216574884  0.4679604314106942  0.7360535007730433  1.0000
  C   C12       1.0  0.36268329788527415  0.9679604312659515  0.7639464990232296  1.0000
  C   C13       1.0  0.4575434631668523  0.5012319730879544  0.6845608020556104  1.0000
  C   C14       1.0  0.04245653688417073  0.0012319726524952605  0.8154391977406625  1.0000
  C   C15       1.0  0.5424565374153354  0.49876802720276214  0.315439197652031  1.0000
  C   C16       1.0  0.9575434627338224  0.9987680270580196  0.1845608024460164  1.0000
  C   C17       1.0  0.8533731961438452  0.4050343730739005  0.34557747199380306  1.0000
  C   C18       1.0  0.6466268040123664  0.9050343735093597  0.154422527414755  1.0000
  C   C19       1.0  0.14662680348120177  0.5949656266366142  0.6544225275033866  1.0000
  C   C20       1.0  0.35337319656982125  0.09496562678135687  0.8455774722928864  1.0000
  C   C21       1.0  0.19558382817343362  0.40685704917900534  0.3744946213259733  1.0000
  C   C22       1.0  0.3044161721141333  0.9068570490342628  0.1255053788725921  1.0000
  C   C23       1.0  0.8044161724017004  0.5931429505315094  0.6255053790711576  1.0000
  C   C24       1.0  0.6955838275038599  0.09314295067625204  0.8744946213140867  1.0000
  C   C25       1.0  0.8961370322574537  0.3690682286066536  0.43708728857682333  1.0000
  C   C26       1.0  0.6038629678917042  0.8690682290421128  0.06291271152122403  1.0000
  C   C27       1.0  0.10386296736759336  0.6309317711038612  0.5629127109203661  1.0000
  C   C28       1.0  0.39613703268342965  0.13093177124860378  0.9370872888759069  1.0000
  C   C29       1.0  0.6819782540850337  0.6271120293792222  0.9240119788947544  1.0000
  C   C30       1.0  0.8180217458205266  0.1271120295239648  0.57598802149049  1.0000
  C   C31       1.0  0.3180217455329596  0.37288797033129256  0.0759880212919246  1.0000
  C   C32       1.0  0.18197825475460738  0.8728879707667518  0.4240119789066408  1.0000
  C   C33       1.0  0.537276916564267  0.5463855509770686  0.7668193412881934  1.0000
  C   C34       1.0  0.9627230833412932  0.04638555112181122  0.7331806590970508  1.0000
  C   C35       1.0  0.46272308401086687  0.45361444931364797  0.23318065910893732  1.0000
  C   C36       1.0  0.03727691627670008  0.9536144491689054  0.26681934108962807  1.0000
  C   C37       1.0  0.11668595578464987  0.37429582245643966  0.287336901638114  1.0000
  C   C38       1.0  0.38331404354577636  0.874295822311697  0.21266309834999955  1.0000
  C   C39       1.0  0.8833140438333432  0.6257041772540751  0.7126630985485649  1.0000
  C   C40       1.0  0.6166859560722168  0.12570417739881773  0.7873369018366794  1.0000
  C   C41       1.0  0.298201779985399  0.5341620474394401  0.43971372255829877  1.0000
  C   C42       1.0  0.20179821934502729  0.03416204758418263  0.06028627742981474  1.0000
  C   C43       1.0  0.7017982196396481  0.46583795285127655  0.5602862769388908  1.0000
  C   C44       1.0  0.7982017802729658  0.965837952706534  0.9397137227568642  1.0000
  C   C45       1.0  0.6392899770215859  0.4241591658294193  0.02507623088236766  1.0000
  C   C46       1.0  0.8607100231275722  0.9241591656846767  0.47492376921567975  1.0000
  C   C47       1.0  0.36071002356060183  0.5758408344612973  0.9749237688252737  1.0000
  C   C48       1.0  0.13928997649042116  0.07584083460603987  0.5250762309709992  1.0000
  C   C49       1.0  0.42518504000835045  0.4183186160473872  0.6981559142356247  1.0000
  C   C50       1.0  0.07481496004267255  0.9183186164828464  0.8018440855606482  1.0000
  C   C51       1.0  0.5748149596166966  0.5816813836631276  0.30184408526156487  1.0000
  C   C52       1.0  0.9251850405324614  0.08168138380787018  0.1981559148364826  1.0000
  C   C53       1.0  0.5689002651584556  0.6243182822858484  0.755276107920659  1.0000
  C   C54       1.0  0.9310997347541584  0.12431828243059098  0.7447238917750959  1.0000
  C   C55       1.0  0.4310997354237321  0.3756817174246664  0.24472389178698242  1.0000
  C   C56       1.0  0.06890026486383491  0.8756817172799238  0.25527610841158294  1.0000
  C   C57       1.0  0.7644945855592097  0.2911263927712278  0.2733648285134923  1.0000
  C   C58       1.0  0.7355054145970021  0.7911263926264852  0.22663517089506577  1.0000
  C   C59       1.0  0.2355054140658374  0.7088736075194888  0.7266351709836972  1.0000
  C   C60       1.0  0.2644945859851856  0.2088736076642314  0.7733648288125755  1.0000
  C   C61       1.0  0.8711369369684525  0.29061635187386725  0.44327654696439656  1.0000
  C   C62       1.0  0.6288630631807054  0.7906163517291247  0.05672345313365084  1.0000
  C   C63       1.0  0.1288630626495407  0.7093836478366475  0.5567234532222823  1.0000
  C   C64       1.0  0.37113693740148235  0.20938364798139014  0.9432765465739906  1.0000
  C   C65       1.0  0.6421338838008878  0.6646646167272795  0.8351507093205732  1.0000
  C   C66       1.0  0.8578661161117263  0.16466461687202213  0.6648492903751818  1.0000
  C   C67       1.0  0.3578661167742462  0.33533538356343706  0.16484929107655766  1.0000
  C   C68       1.0  0.1421338835133208  0.8353353834186945  0.33515070912200773  1.0000
  C   C69       1.0  0.8045983280905697  0.2507961635713618  0.3599308989794849  1.0000
  C   C70       1.0  0.6954016720585883  0.750796164006821  0.14006910111856255  1.0000
  C   C71       1.0  0.19540167248456425  0.749203836139153  0.6400691014176458  1.0000
  C   C72       1.0  0.3045983275594049  0.24920383628389556  0.8599308990681163  1.0000
  C   C73       1.0  0.08837632126433886  0.29556815608123826  0.286969597654481  1.0000
  C   C74       1.0  0.4116236780660874  0.7955681565166974  0.21303040233363255  1.0000
  C   C75       1.0  0.9116236783536543  0.7044318436292765  0.713030402532198  1.0000
  C   C76       1.0  0.5883763215519058  0.20443184377401907  0.7869695978530463  1.0000
  C   C77       1.0  0.20916539678785653  0.2899963192202662  0.4545886948009385  1.0000
  C   C78       1.0  0.2908346025425697  0.7899963190755236  0.04541130518717502  1.0000
  C   C79       1.0  0.7908346028301367  0.7100036810704503  0.5454113053857403  1.0000
  C   C80       1.0  0.7091653970824774  0.21000368063499117  0.9545886943100145  1.0000
  C   C81       1.0  0.1350290445107433  0.2530736401406482  0.3721899350127383  1.0000
  C   C82       1.0  0.36497095577682365  0.7530736399959056  0.12781006518582713  1.0000
  C   C83       1.0  0.8649709560643906  0.7469263601500684  0.6278100653843927  1.0000
  C   C84       1.0  0.6350290438482233  0.24692635971460916  0.8721899343113624  1.0000
  C   C85       1.0  0.0022073707478484344  0.28062175795345  0.9268584224949512  1.0000
  C   C86       1.0  0.4977926293031746  0.7806217578087075  0.5731415773013216  1.0000
  C   C87       1.0  0.9977926288771987  0.7193782417570648  0.07314157700223829  1.0000
  C   C88       1.0  0.5022073703148187  0.21937824190180735  0.42685842288535725  1.0000
  C   C89       1.0  0.8719234375010764  0.4147657039087654  0.8820102073388618  1.0000
  C   C90       1.0  0.6280765624044838  0.9147657043442246  0.6179897930463826  1.0000
  C   C91       1.0  0.12807656211691693  0.5852342958017495  0.11798979284781706  1.0000
  C   C92       1.0  0.37192343721350934  0.085234295946492  0.3820102071402965  1.0000
  N   N1        1.0  0.576151039119315  0.5099518514694701  0.8525068222682248  1.0000
  N   N2        1.0  0.923848960793299  0.009951851034010894  0.6474931774275301  1.0000
  N   N3        1.0  0.4238489604986783  0.4900481488212465  0.14749317791845407  1.0000
  N   N4        1.0  0.07615103883174804  0.9900481486765039  0.35250682206965944  1.0000
  N   N5        1.0  0.790159102346634  0.5015139894560874  0.17987305317604563  1.0000
  N   N6        1.0  0.7098408978025238  0.0015139896008299757  0.3201269469220017  1.0000
  N   N7        1.0  0.20984089727135916  0.4984860102544274  0.8201269470106334  1.0000
  N   N8        1.0  0.29015910277261003  0.9984860106898865  0.679873053475129  1.0000
  N   N9        1.0  0.8842003295542462  0.48313313260896945  0.3413980002229972  1.0000
  N   N10       1.0  0.6157996705949117  0.9831331324642267  0.15860199987505016  1.0000
  N   N11       1.0  0.1157996710208877  0.5168668676817472  0.6586020001741335  1.0000
  N   N12       1.0  0.38420032902308143  0.01686686724628799  0.8413980003116287  1.0000
  N   N13       1.0  0.7567986407323474  0.5427431531544247  0.09681815924138937  1.0000
  N   N14       1.0  0.7432013594168106  0.04274315329916731  0.403181840856658  1.0000
  N   N15       1.0  0.2432013598427866  0.45725684655609006  0.9031818411557415  1.0000
  N   N16       1.0  0.25679864020118265  0.9572568469915493  0.5968181593300208  1.0000
  N   N17       1.0  0.22488897574729128  0.4850388785265916  0.37085480554994577  1.0000
  N   N18       1.0  0.2751110245473295  0.9850388789620507  0.12914519395913024  1.0000
  N   N19       1.0  0.7751110238777558  0.5149611211839231  0.6291451939472438  1.0000
  N   N20       1.0  0.7248889760348582  0.01496112132866581  0.8708548057485112  1.0000
  N   N21       1.0  0.34774785099652455  0.49952267363639147  0.5270713212056632  1.0000
  N   N22       1.0  0.15225214904744466  0.9995226734916488  0.972928679280099  1.0000
  N   N23       1.0  0.6522521495786093  0.500477326654325  0.47292867919146747  1.0000
  N   N24       1.0  0.8477478505705486  0.0004773267990676904  0.027071320906579942  1.0000
  N   N25       1.0  0.4204789426765203  0.5390527772845328  0.6032883972457893  1.0000
  N   N26       1.0  0.07952105737450275  0.039052777429275404  0.8967116025504837  1.0000
  N   N27       1.0  0.5795210569485267  0.46094722242598196  0.39671160225140023  1.0000
  N   N28       1.0  0.9204789432006312  0.9609472222812393  0.1032883978466472  1.0000
  N   N29       1.0  0.7883151969032763  0.36716001683138133  0.26626074062616967  1.0000
  N   N30       1.0  0.7116848032529353  0.8671600172668404  0.23373925878238838  1.0000
  N   N31       1.0  0.21168480272177065  0.6328399828791335  0.7337392588710199  1.0000
  N   N32       1.0  0.28831519732925237  0.1328399830238761  0.766260740925253  1.0000
  N   N33       1.0  0.23976010591446667  0.365842771340134  0.45548976546013936  1.0000
  N   N34       1.0  0.26023989437310024  0.8658427711953914  0.044510234738426115  1.0000
  N   N35       1.0  0.7602398946606672  0.6341572283703808  0.5445102349369915  1.0000
  N   N36       1.0  0.7397601062020336  0.13415722851512343  0.9554897656587047  1.0000
  O   O1        1.0  0.07527155153417173  0.4230577728138368  0.21245378151390545  1.0000
  O   O2        1.0  0.42472844876044896  0.9230577726690942  0.28754621799517055  1.0000
  O   O3        1.0  0.9247284480908753  0.5769422274768798  0.7875462179832841  1.0000
  O   O4        1.0  0.5752715518217387  0.07694222704142059  0.7124537817124708  1.0000
  O   O5        1.0  0.9591038765963716  0.41439015146784436  0.511597849747764  1.0000
  O   O6        1.0  0.5408961233091885  0.9143901519033035  0.9884021506374804  1.0000
  O   O7        1.0  0.040896123021621454  0.5856098482426704  0.48840215043891494  1.0000
  O   O8        1.0  0.45910387630880484  0.085609848387413  0.01159784954919857  1.0000
  O   O9        1.0  0.9328068377612047  0.3594617606803658  0.06175169607056311  1.0000
  O   O10       1.0  0.5671931623879535  0.8594617605356232  0.43824830402748427  1.0000
  O   O11       1.0  0.06719316185678872  0.640538239030149  0.9382483041161157  1.0000
  O   O12       1.0  0.43280683818718046  0.1405382391748916  0.5617516963696465  1.0000
  S   S1        1.0  0.9237414095691856  0.6226941222266235  0.27820809444794503  1.0000
  S   S2        1.0  0.5762585896228317  0.12269412237136608  0.22179190543965047  1.0000
  S   S3        1.0  0.07625859004880776  0.3773058780640931  0.7217919057387339  1.0000
  S   S4        1.0  0.42374140999516136  0.8773058779193504  0.7782080947470286  1.0000
  S   S5        1.0  0.31669162149517666  0.6264585753613341  0.410756347025005  1.0000
  S   S6        1.0  0.1833083787923903  0.1264585755060767  0.08924365317356033  1.0000
  S   S7        1.0  0.6833083781228165  0.37354142434918064  0.5892436531616738  1.0000
  S   S8        1.0  0.8166916217827437  0.8735414247846399  0.9107563472235704  1.0000
  S   S9        1.0  0.9941795042748183  0.37364334375777736  0.9798942097148979  1.0000
  S   S10       1.0  0.5058204965949362  0.8736433436130348  0.5201057901913088  1.0000
  S   S11       1.0  0.005820496300315545  0.6263566565329393  0.02010579068223278  1.0000
  S   S12       1.0  0.49417950398725147  0.12635665609748  0.47989420951633266  1.0000
