data_image0
_chemical_formula_structural       H18C32N10F6S6
_chemical_formula_sum              "H18 C32 N10 F6 S6"
_cell_length_a       5.986890462311969
_cell_length_b       7.4229072375529555
_cell_length_c       19.131482070001386
_cell_angle_alpha    83.83421834229576
_cell_angle_beta     84.20562015986582
_cell_angle_gamma    70.7097628149676

_space_group_name_H-M_alt    "P 1"
_space_group_IT_number       1

loop_
  _space_group_symop_operation_xyz
  'x, y, z'

loop_
  _atom_site_type_symbol
  _atom_site_label
  _atom_site_symmetry_multiplicity
  _atom_site_fract_x
  _atom_site_fract_y
  _atom_site_fract_z
  _atom_site_occupancy
  H   H1        1.0  0.7552928489861329  0.2697662665820615  0.3375314307165461  1.0000
  H   H2        1.0  0.24470715026313952  0.7302337335056305  0.6624685694259305  1.0000
  H   H3        1.0  0.9766988404751942  0.9858501636590306  0.2730929485321116  1.0000
  H   H4        1.0  0.02330115877407823  0.014149836428661444  0.7269070516103651  1.0000
  H   H5        1.0  0.5633599324344511  0.20255623965789185  0.22769135461224535  1.0000
  H   H6        1.0  0.4366400668148213  0.7974437604298  0.7723086455302312  1.0000
  H   H7        1.0  0.34985552331231806  0.4803023093045519  0.2965234895759138  1.0000
  H   H8        1.0  0.6501444759369543  0.5196976907831401  0.7034765105665627  1.0000
  H   H9        1.0  0.7504969007186351  0.8674858238341436  0.24349972770897718  1.0000
  H   H10       1.0  0.24950309910688867  0.13251417482186664  0.7565002724691253  1.0000
  H   H11       1.0  0.9621815542101605  0.5784896310598892  0.17977788881742698  1.0000
  H   H12       1.0  0.03781844503147281  0.4215103690437716  0.8202221108019595  1.0000
  H   H13       1.0  0.7412816020779027  0.44841328161941457  0.10620378025225019  1.0000
  H   H14       1.0  0.2587183971713698  0.5515867184682773  0.8937962198902263  1.0000
  H   H15       1.0  0.3079889138750937  0.6096776333618283  0.09650289413170399  1.0000
  H   H16       1.0  0.6920110859504298  0.3903223652941819  0.9034971060463985  1.0000
  H   H17       1.0  0.09820505164403474  0.9011166351677087  0.1584886679697083  1.0000
  H   H18       1.0  0.9017949476052376  0.09888336491998329  0.8415113321727683  1.0000
  C   C1        1.0  0.903272442449435  0.5606751018774035  0.3619090777073825  1.0000
  C   C2        1.0  0.09672755679983736  0.4393248982102884  0.638090922435094  1.0000
  C   C3        1.0  0.036621591503125606  0.39490597755522927  0.3210781639842597  1.0000
  C   C4        1.0  0.9633784077461469  0.6050940225324626  0.678921836158217  1.0000
  C   C5        1.0  0.9317421538649765  0.2554540313774677  0.3130947861302653  1.0000
  C   C6        1.0  0.06825784538429604  0.7445459687102242  0.6869052140122113  1.0000
  C   C7        1.0  0.054603128953357394  0.09795220326188253  0.2758846538716291  1.0000
  C   C8        1.0  0.9453968719660515  0.9020477968445645  0.7241153456942574  1.0000
  C   C9        1.0  0.2837889885998219  0.07517400951555368  0.24440250695853058  1.0000
  C   C10       1.0  0.7162110106494505  0.9248259905721383  0.755597493183946  1.0000
  C   C11       1.0  0.3873795905441364  0.2155095495441246  0.2524508761740279  1.0000
  C   C12       1.0  0.6126204103829116  0.7844904505463536  0.7475491239149488  1.0000
  C   C13       1.0  0.26674452600070797  0.3729520150422929  0.2906344175975239  1.0000
  C   C14       1.0  0.7332554732485645  0.627047985045399  0.7093655825449527  1.0000
  C   C15       1.0  0.41000453389022873  0.9052098812093958  0.20556924029036502  1.0000
  C   C16       1.0  0.5899954670368194  0.09479011888108217  0.7944307597986117  1.0000
  C   C17       1.0  0.6545407466804013  0.8129218709195877  0.21015450024485388  1.0000
  C   C18       1.0  0.3454592525688711  0.1870781291681042  0.7898454998976226  1.0000
  C   C19       1.0  0.7731386937667865  0.6497922572031579  0.17477294653821474  1.0000
  C   C20       1.0  0.22686130605873728  0.35020774145285233  0.8252270536398877  1.0000
  C   C21       1.0  0.6486549828681691  0.5759017319087548  0.13390005269182256  1.0000
  C   C22       1.0  0.35134501805887886  0.4240982681817232  0.8660999473971541  1.0000
  C   C23       1.0  0.40534592021307  0.6662985294875352  0.12863297735182555  1.0000
  C   C24       1.0  0.5946540812902293  0.3337014691712609  0.8713670227727769  1.0000
  C   C25       1.0  0.287005719210134  0.8294297361510753  0.1640699908034588  1.0000
  C   C26       1.0  0.7129942800391385  0.17057026393661665  0.8359300093390177  1.0000
  C   C27       1.0  0.26331555230688847  0.09461418086898009  0.9870770359214549  1.0000
  C   C28       1.0  0.7366844486125206  0.9053858192374669  0.012922963644431662  1.0000
  C   C29       1.0  0.3909043456530298  0.9315636762331603  0.9525432041343899  1.0000
  C   C30       1.0  0.6090956552740183  0.06843632385731775  0.04745679595458674  1.0000
  C   C31       1.0  0.37194155739867335  0.16290847122042623  0.03458584907393993  1.0000
  C   C32       1.0  0.6280584435283747  0.8370915288700519  0.9654141510150367  1.0000
  N   N1        1.0  0.03301843807219052  0.6585101107742387  0.38434884766463423  1.0000
  N   N2        1.0  0.9669815628548575  0.3414898893162394  0.6156511524243423  1.0000
  N   N3        1.0  0.6334666983349295  0.9462975165501568  0.40036720440937024  1.0000
  N   N4        1.0  0.3665333009067039  0.05370248355350381  0.5996327952100162  1.0000
  N   N5        1.0  0.6683770629845628  0.5938097052226218  0.37028725295827225  1.0000
  N   N6        1.0  0.3316229362647098  0.4061902948650701  0.6297127471842043  1.0000
  N   N7        1.0  0.8445468006980839  0.7300214971785656  0.513104292331828  1.0000
  N   N8        1.0  0.15545319855118842  0.26997850290912645  0.4868957078106485  1.0000
  N   N9        1.0  0.4147105186483983  0.7297767662341447  0.4842172488967585  1.0000
  N   N10       1.0  0.5852894806008742  0.2702232338535474  0.515782751245718  1.0000
  F   F1        1.0  0.03423393656723712  0.18693554062543374  0.9746842318444094  1.0000
  F   F2        1.0  0.9657660626820354  0.8130644594622581  0.025315768298067122  1.0000
  F   F3        1.0  0.28491074005671313  0.8649865968160488  0.9069959371534826  1.0000
  F   F4        1.0  0.7150892597688107  0.13501340183996138  0.09300406302461989  1.0000
  F   F5        1.0  0.24699955171249632  0.32074119872648915  0.06767506707816759  1.0000
  F   F6        1.0  0.7530004475367762  0.6792588013612026  0.932324933064309  1.0000
  S   S1        1.0  0.895920716868132  0.8377759554623722  0.4312578934370543  1.0000
  S   S2        1.0  0.10407928238114043  0.1622240446253199  0.5687421067054224  1.0000
  S   S3        1.0  0.4879607046708215  0.7952255987520395  0.39700743660150806  1.0000
  S   S4        1.0  0.512039294578451  0.20477440133565242  0.6029925635409686  1.0000
  S   S5        1.0  0.5991579967221232  0.707231755991334  0.5394398509626465  1.0000
  S   S6        1.0  0.4008420042049248  0.29276824409914404  0.46056014912633014  1.0000
