data_image0
_chemical_formula_structural       H6C20N10F10S6
_chemical_formula_sum              "H6 C20 N10 F10 S6"
_cell_length_a       7.518664489705983
_cell_length_b       8.643244742193488
_cell_length_c       11.063553202500822
_cell_angle_alpha    109.1726162420143
_cell_angle_beta     94.858748236281
_cell_angle_gamma    104.01428084764844

_space_group_name_H-M_alt    "P 1"
_space_group_IT_number       1

loop_
  _space_group_symop_operation_xyz
  'x, y, z'

loop_
  _atom_site_type_symbol
  _atom_site_label
  _atom_site_symmetry_multiplicity
  _atom_site_fract_x
  _atom_site_fract_y
  _atom_site_fract_z
  _atom_site_occupancy
  H   H1        1.0  0.3022596266340899  0.6512584927689207  0.18777113225508588  1.0000
  H   H2        1.0  0.6977403720291209  0.34874150661657366  0.8122288671502065  1.0000
  H   H3        1.0  0.48900198622542584  0.9394280657927766  0.34271538275040503  1.0000
  H   H4        1.0  0.5109980137728162  0.06057193357963823  0.6572846176292774  1.0000
  H   H5        1.0  0.8290086304511123  0.996188907096695  0.4244015624094356  1.0000
  H   H6        1.0  0.17099136954753105  0.003811092290785193  0.5755984370703339  1.0000
  C   C1        1.0  0.8114035946287088  0.4323108484307203  0.17950331126612348  1.0000
  C   C2        1.0  0.18859640403450198  0.5676891509547739  0.8204966881391689  1.0000
  C   C3        1.0  0.7265405191485418  0.5752674490808707  0.22890306640323257  1.0000
  C   C4        1.0  0.27345948085010147  0.42473255030660956  0.771096933076537  1.0000
  C   C5        1.0  0.5378288258629821  0.5499541616140395  0.186096721602624  1.0000
  C   C6        1.0  0.46217117453332385  0.4500458390520059  0.8139032782387305  1.0000
  C   C7        1.0  0.449461778119162  0.676842113853938  0.22459316174922148  1.0000
  C   C8        1.0  0.5505382222767427  0.32315788679704194  0.775406838992046  1.0000
  C   C9        1.0  0.5557608980698412  0.8382309636239392  0.3104811382840241  1.0000
  C   C10       1.0  0.44423910192880206  0.16176903576354093  0.6895188611957455  1.0000
  C   C11       1.0  0.7453240420729926  0.8715650928355001  0.35600031691399747  1.0000
  C   C12       1.0  0.2546759565902182  0.12843490654999418  0.6439996824912948  1.0000
  C   C13       1.0  0.8265954810938053  0.7395780227066795  0.31371530440813566  1.0000
  C   C14       1.0  0.1734045175694056  0.26042197667881484  0.6862846949971566  1.0000
  C   C15       1.0  0.30896609144094445  0.4661512220209657  0.46155665144904673  1.0000
  C   C16       1.0  0.6910339085572976  0.5338487773514491  0.5384433489306355  1.0000
  C   C17       1.0  0.42024642922987804  0.6344099525250475  0.5224792484880885  1.0000
  C   C18       1.0  0.5797535707687652  0.36559004686243274  0.47752075099168095  1.0000
  C   C19       1.0  0.38880741868962476  0.3317714008271661  0.43830775646623327  1.0000
  C   C20       1.0  0.6111925813086172  0.6682285985452486  0.5616922439134491  1.0000
  N   N1        1.0  0.9260824920779379  0.45392604184373636  0.0967520782968222  1.0000
  N   N2        1.0  0.0739175079207055  0.5460739575437439  0.9032479211829473  1.0000
  N   N3        1.0  0.04847802950434886  0.20789118119878292  0.13325137471499235  1.0000
  N   N4        1.0  0.9515219708915559  0.792108819452197  0.866748626026275  1.0000
  N   N5        1.0  0.7563477038866908  0.30443423637166017  0.22277319005257362  1.0000
  N   N6        1.0  0.2436522961119525  0.6955657630158201  0.7772268094271959  1.0000
  N   N7        1.0  0.8459782329755579  0.15512734287211863  0.9027093827967758  1.0000
  N   N8        1.0  0.15402176702308557  0.8448726565153617  0.09729061668299356  1.0000
  N   N9        1.0  0.7034707817240989  0.9921717730795199  0.05829957825504941  1.0000
  N   N10       1.0  0.296529218274143  0.007828226292894893  0.9417004221246328  1.0000
  F   F1        1.0  0.43890376050097357  0.39242565534320456  0.09956704246727997  1.0000
  F   F2        1.0  0.5610962381618361  0.6075743440272243  0.9004329578379252  1.0000
  F   F3        1.0  0.010703013385154714  0.7693952023172852  0.3585806219799819  1.0000
  F   F4        1.0  0.9892969852780563  0.2306047970682092  0.6414193774253104  1.0000
  F   F5        1.0  0.12414426299754455  0.4340639018964629  0.4268814383202543  1.0000
  F   F6        1.0  0.8758557370006975  0.5659360974759519  0.573118562059428  1.0000
  F   F7        1.0  0.34365110018071465  0.764025148429036  0.5415486085797332  1.0000
  F   F8        1.0  0.65634890021519  0.2359748522219439  0.45845139216153424  1.0000
  F   F9        1.0  0.2812390315658747  0.16870744273480956  0.37901665715979876  1.0000
  F   F10       1.0  0.7187609684323674  0.8312925566376052  0.6209833432198836  1.0000
  S   S1        1.0  0.021627869906396462  0.3031422169817411  0.029339489255120896  1.0000
  S   S2        1.0  0.9783721300922469  0.6968577824057391  0.9706605102246486  1.0000
  S   S3        1.0  0.8583261479509283  0.1513187769819181  0.189635412951168  1.0000
  S   S4        1.0  0.14167385244537758  0.8486812236841272  0.8103645868901865  1.0000
  S   S5        1.0  0.7187185435833306  0.9940414792038135  0.9188869792903128  1.0000
  S   S6        1.0  0.28128145681257416  0.0059585214471664285  0.0811130214509545  1.0000
