data_image0
_chemical_formula_structural       H64C24N8O18S8I4
_chemical_formula_sum              "H64 C24 N8 O18 S8 I4"
_cell_length_a       15.636288873022222
_cell_length_b       5.034500920211428
_cell_length_c       17.40327506121991
_cell_angle_alpha    90.0
_cell_angle_beta     105.02266775700919
_cell_angle_gamma    90.0

_space_group_name_H-M_alt    "P 1"
_space_group_IT_number       1

loop_
  _space_group_symop_operation_xyz
  'x, y, z'

loop_
  _atom_site_type_symbol
  _atom_site_label
  _atom_site_symmetry_multiplicity
  _atom_site_fract_x
  _atom_site_fract_y
  _atom_site_fract_z
  _atom_site_occupancy
  H   H1        1.0  0.130115767868825  0.37287926643603886  0.6631160405035456  1.0000
  H   H2        1.0  0.8698842320854351  0.37287926643603886  0.33688395943594335  1.0000
  H   H3        1.0  0.6301157680234981  0.872879266415041  0.16311604052935494  1.0000
  H   H4        1.0  0.36988423193076203  0.872879266415041  0.836883959410134  1.0000
  H   H5        1.0  0.32775249303942205  0.11679687010074195  0.46211980657353874  1.0000
  H   H6        1.0  0.6722475075559549  0.11679687010074195  0.5378801933715203  1.0000
  H   H7        1.0  0.8277524931821919  0.616796870079744  0.9621198071381944  1.0000
  H   H8        1.0  0.1722475075788248  0.616796870079744  0.03788019340177571  1.0000
  H   H9        1.0  0.13565384583270887  0.8522219536747678  0.5615518676639712  1.0000
  H   H10       1.0  0.8643461541215512  0.8522219536747678  0.4384481322755177  1.0000
  H   H11       1.0  0.6356538459873818  0.3522219536957658  0.06155186768978064  1.0000
  H   H12       1.0  0.36434615396687814  0.3522219536957658  0.9384481322497082  1.0000
  H   H13       1.0  0.09671044608451843  0.5500061960230435  0.5241753614627102  1.0000
  H   H14       1.0  0.9032895538697416  0.5500061960230435  0.4758246384767788  1.0000
  H   H15       1.0  0.5967104462391916  0.0500061960440415  0.024175361488519554  1.0000
  H   H16       1.0  0.4032895537150686  0.0500061960440415  0.9758246384509693  1.0000
  H   H17       1.0  0.12397854799417135  0.775130286367316  0.4653431924323294  1.0000
  H   H18       1.0  0.8760214519600887  0.775130286367316  0.5346568075071595  1.0000
  H   H19       1.0  0.6239785479713015  0.2751302863883139  0.9653431924020739  1.0000
  H   H20       1.0  0.37602145198295867  0.2751302863883139  0.03465680753741509  1.0000
  H   H21       1.0  0.27932711373284635  0.7606318701078281  0.5361812435791725  1.0000
  H   H22       1.0  0.7206728862214137  0.7606318701078281  0.4638187563603164  1.0000
  H   H23       1.0  0.7793271138875195  0.260631870128826  0.03618124360498196  1.0000
  H   H24       1.0  0.22067288606674068  0.260631870128826  0.9638187563345071  1.0000
  H   H25       1.0  0.26023500696739477  0.6814285039113522  0.6716130868179516  1.0000
  H   H26       1.0  0.7397649929868653  0.6814285039113522  0.3283869131215374  1.0000
  H   H27       1.0  0.7602350071220678  0.18142850393235024  0.17161308684376098  1.0000
  H   H28       1.0  0.23976499283219221  0.18142850393235024  0.828386913095728  1.0000
  H   H29       1.0  0.3331712057616478  0.45262333170937274  0.6450149120343357  1.0000
  H   H30       1.0  0.6668287943582519  0.45262333170937274  0.3549850885000645  1.0000
  H   H31       1.0  0.833171205916321  0.9526233316883749  0.1450149120601452  1.0000
  H   H32       1.0  0.16682879420357896  0.9526233316883749  0.8549850884742551  1.0000
  H   H33       1.0  0.5479493073286962  0.9547095345049907  0.2933801312489585  1.0000
  H   H34       1.0  0.45205069279120375  0.9547095345049907  0.7066198692854418  1.0000
  H   H35       1.0  0.04794930717402308  0.45470953452598867  0.7933801312231491  1.0000
  H   H36       1.0  0.9520506929458767  0.45470953452598867  0.2066198693112512  1.0000
  H   H37       1.0  0.4075185067796514  0.6276961828159299  0.2036703267009556  1.0000
  H   H38       1.0  0.5924814938157255  0.6276961828159299  0.7963296732441033  1.0000
  H   H39       1.0  0.9075185069224212  0.12769618283692782  0.7036703272656114  1.0000
  H   H40       1.0  0.09248149383859544  0.12769618283692782  0.2963296732743589  1.0000
  H   H41       1.0  0.3895210758833945  0.94849805883032  0.22049322081593478  1.0000
  H   H42       1.0  0.6104789240708656  0.94849805883032  0.7795067791235541  1.0000
  H   H43       1.0  0.8895210758605244  0.44849805885131805  0.7204932207856792  1.0000
  H   H44       1.0  0.11047892409373554  0.44849805885131805  0.27950677915380967  1.0000
  H   H45       1.0  0.30318935725013596  0.7330548347272944  0.19850896018345732  1.0000
  H   H46       1.0  0.6968106427041241  0.7330548347272944  0.8014910397560316  1.0000
  H   H47       1.0  0.803189357227266  0.23305483474829228  0.6985089601532019  1.0000
  H   H48       1.0  0.19681064272699408  0.23305483474829228  0.3014910397862872  1.0000
  H   H49       1.0  0.3419193597735292  0.513988298147203  0.3162967191520675  1.0000
  H   H50       1.0  0.6580806401807309  0.513988298147203  0.6837032807874215  1.0000
  H   H51       1.0  0.8419193597506592  0.013988298168201045  0.8162967191218119  1.0000
  H   H52       1.0  0.15808064020360083  0.013988298168201045  0.18370328081767703  1.0000
  H   H53       1.0  0.5022672957548997  0.47546871237824156  0.33251539248893125  1.0000
  H   H54       1.0  0.49773270419936044  0.47546871237824156  0.6674846074505577  1.0000
  H   H55       1.0  0.002267295600226578  0.9754687123572436  0.8325153924631219  1.0000
  H   H56       1.0  0.9977327043540335  0.9754687123572436  0.16748460747636712  1.0000
  H   H57       1.0  0.47600477735049934  0.5830550468698148  0.4203975471453508  1.0000
  H   H58       1.0  0.5239952226037606  0.5830550468698148  0.5796024527941381  1.0000
  H   H59       1.0  0.9760047773276295  0.08305504689081274  0.9203975471150954  1.0000
  H   H60       1.0  0.023995222626630716  0.08305504689081274  0.07960245282439364  1.0000
  H   H61       1.0  0.9928330737963945  0.20608578217449758  0.5432773467183196  1.0000
  H   H62       1.0  0.007166926157865679  0.20608578217449758  0.45672265322116934  1.0000
  H   H63       1.0  0.4928330738192644  0.7060857821534996  0.043277346748575134  1.0000
  H   H64       1.0  0.5071669261349957  0.7060857821534996  0.9567226531909139  1.0000
  C   C1        1.0  0.24181231604103165  0.3726624048210937  0.4886204462065525  1.0000
  C   C2        1.0  0.7581876839132284  0.3726624048210937  0.5113795537329366  1.0000
  C   C3        1.0  0.7418123160181617  0.8726624048000957  0.988620446176297  1.0000
  C   C4        1.0  0.2581876839360984  0.8726624048000957  0.011379553763192047  1.0000
  C   C5        1.0  0.23513737466589793  0.5999125708518415  0.5447288572345594  1.0000
  C   C6        1.0  0.764862625929479  0.5999125708518415  0.4552711427104995  1.0000
  C   C7        1.0  0.7351373741794542  0.0999125708728395  0.044728857254798825  1.0000
  C   C8        1.0  0.2648626257748059  0.0999125708728395  0.9552711426846902  1.0000
  C   C9        1.0  0.26374881568118375  0.5147471539028278  0.6319211591197146  1.0000
  C   C10       1.0  0.7362511842730763  0.5147471539028278  0.3680788408197744  1.0000
  C   C11       1.0  0.7637488158358569  0.014747153923825687  0.131921159145524  1.0000
  C   C12       1.0  0.23625118411840326  0.014747153923825687  0.8680788407939649  1.0000
  C   C13       1.0  0.33818802455982044  0.9224900429266302  0.3513554819060373  1.0000
  C   C14       1.0  0.6618119753944396  0.9224900429266302  0.6486445180334517  1.0000
  C   C15       1.0  0.8381880245369505  0.42249004294762815  0.8513554818757819  1.0000
  C   C16       1.0  0.1618119754173096  0.42249004294762815  0.14864451806370715  1.0000
  C   C17       1.0  0.38001867622336744  0.6969535542070462  0.3146859099303142  1.0000
  C   C18       1.0  0.6199813237308927  0.6969535542070462  0.6853140900091748  1.0000
  C   C19       1.0  0.8800186762004976  0.1969535542280442  0.8146859099000586  1.0000
  C   C20       1.0  0.11998132375376257  0.1969535542280442  0.1853140900394303  1.0000
  C   C21       1.0  0.4756294409500285  0.6421403732436368  0.35969574247700853  1.0000
  C   C22       1.0  0.5243705590042315  0.6421403732436368  0.6403042574624804  1.0000
  C   C23       1.0  0.9756294409271586  0.14214037326463486  0.859695742446753  1.0000
  C   C24       1.0  0.02437055902710147  0.14214037326463486  0.14030425749273595  1.0000
  N   N1        1.0  0.1426087426243216  0.701337321406571  0.5230855884505043  1.0000
  N   N2        1.0  0.8573912573299385  0.701337321406571  0.47691441148898467  1.0000
  N   N3        1.0  0.6426087427789946  0.20133732142756894  0.023085588476313663  1.0000
  N   N4        1.0  0.35739125717526543  0.20133732142756894  0.9769144114631754  1.0000
  N   N5        1.0  0.370234887598752  0.7568363618135924  0.22885590880079643  1.0000
  N   N6        1.0  0.6297651125211479  0.7568363618135924  0.7711440917336039  1.0000
  N   N7        1.0  0.8702348875758821  0.25683636183459024  0.7288559087705409  1.0000
  N   N8        1.0  0.12976511237837798  0.25683636183459024  0.27114409116894805  1.0000
  O   O1        1.0  0.3230828685798326  0.29189696323231273  0.4992701675934265  1.0000
  O   O2        1.0  0.6769171315400673  0.29189696323231273  0.5007298329409737  1.0000
  O   O3        1.0  0.8230828685569624  0.7918969632113149  0.9992701675631709  1.0000
  O   O4        1.0  0.17691713156293726  0.7918969632113149  0.0007298329712293461  1.0000
  O   O5        1.0  0.1750612102321614  0.28040864275792277  0.44121742412430875  1.0000
  O   O6        1.0  0.8249387897220987  0.28040864275792277  0.5587825758151802  1.0000
  O   O7        1.0  0.6750612102092914  0.7804086427369249  0.9412174240940533  1.0000
  O   O8        1.0  0.3249387897449687  0.7804086427369249  0.0587825758454357  1.0000
  O   O9        1.0  0.342611248153038  0.8923299709738332  0.42498086830046444  1.0000
  O   O10       1.0  0.657388751801222  0.8923299709738332  0.5750191316390245  1.0000
  O   O11       1.0  0.842611248130168  0.3923299709948311  0.924980868270209  1.0000
  O   O12       1.0  0.15738875182409207  0.3923299709948311  0.07501913166928006  1.0000
  O   O13       1.0  0.303561093700474  0.11405021452968302  0.30741561468834666  1.0000
  O   O14       1.0  0.6964389062537861  0.11405021452968302  0.6925843852511423  1.0000
  O   O15       1.0  0.8035610936776041  0.614050214508685  0.8074156146580912  1.0000
  O   O16       1.0  0.19643890627665597  0.614050214508685  0.19258438528139776  1.0000
  O   O17       1.0  2.3178690179645281e-10  0.32277766669506447  0.4999999999747526  1.0000
  O   O18       1.0  0.49999999974534315  0.8227776666740666  0.9999999999949919  1.0000
  S   S1        1.0  0.20320882865123105  0.23531292947906507  0.658273266245566  1.0000
  S   S2        1.0  0.796791171303029  0.23531292947906507  0.34172673369392287  1.0000
  S   S3        1.0  0.7032088288059041  0.7353129294580671  0.15827326627137545  1.0000
  S   S4        1.0  0.29679117114835596  0.7353129294580671  0.8417267336681136  1.0000
  S   S5        1.0  0.5483786379818948  0.9281114044972248  0.37099799834127306  1.0000
  S   S6        1.0  0.4516213619723654  0.9281114044972248  0.6290020015982158  1.0000
  S   S7        1.0  0.04837863782722172  0.4281114045182228  0.8709979983154638  1.0000
  S   S8        1.0  0.9516213621270383  0.4281114045182228  0.12900200162402525  1.0000
  I   I1        1.0  0.5117550258338702  0.31373643088611597  0.16208717828288705  1.0000
  I   I2        1.0  0.48824497412038986  0.31373643088611597  0.837912821656602  1.0000
  I   I3        1.0  0.011755026320313989  0.8137364308651179  0.6620871782626477  1.0000
  I   I4        1.0  0.988244973633946  0.8137364308651179  0.3379128216768413  1.0000
