data_image0
_chemical_formula_structural       H40C34N4O6F4S2
_chemical_formula_sum              "H40 C34 N4 O6 F4 S2"
_cell_length_a       11.918194106668736
_cell_length_b       5.742862722991041
_cell_length_c       12.569804749539271
_cell_angle_alpha    89.99979979928139
_cell_angle_beta     93.185162150827
_cell_angle_gamma    89.99977429148343

_space_group_name_H-M_alt    "P 1"
_space_group_IT_number       1

loop_
  _space_group_symop_operation_xyz
  'x, y, z'

loop_
  _atom_site_type_symbol
  _atom_site_label
  _atom_site_symmetry_multiplicity
  _atom_site_fract_x
  _atom_site_fract_y
  _atom_site_fract_z
  _atom_site_occupancy
  H   H1        1.0  0.39374255031143707  0.006146278517845714  0.7023330213804196  1.0000
  H   H2        1.0  0.6062569798273066  0.506147571777711  0.2976684087434656  1.0000
  H   H3        1.0  0.2745933924023556  0.12065522742711303  0.7603031833965753  1.0000
  H   H4        1.0  0.7254052871846515  0.6206542590564298  0.2396972714872691  1.0000
  H   H5        1.0  0.27323233270856345  0.08432409863879575  0.6192100122791656  1.0000
  H   H6        1.0  0.7267673555641533  0.5843271770926833  0.3807914574535223  1.0000
  H   H7        1.0  0.138069215614478  0.4089530806933473  0.6016949726685722  1.0000
  H   H8        1.0  0.8619336215210207  0.9089526417890234  0.3983046493985639  1.0000
  H   H9        1.0  0.9347360975567965  0.390916294414178  0.5494955178835084  1.0000
  H   H10       1.0  0.0652674233124395  0.890916269086544  0.45050408922355956  1.0000
  H   H11       1.0  0.8089794559171026  0.7194835637222258  0.5931415909981036  1.0000
  H   H12       1.0  0.19102182001981904  0.2194854846781529  0.4068574720190491  1.0000
  H   H13       1.0  0.8883689980461132  0.06531506349010537  0.6901233503742555  1.0000
  H   H14       1.0  0.11162986178812809  0.5653183228258121  0.3098758423901066  1.0000
  H   H15       1.0  0.09174135239994764  0.08935027839533265  0.7367458879809063  1.0000
  H   H16       1.0  0.9082566729157842  0.5893530798730375  0.263253275067767  1.0000
  H   H17       1.0  0.4350996292818832  0.28279169401731324  0.5586799857402558  1.0000
  H   H18       1.0  0.5649023156617204  0.7827938895581058  0.4413198123580188  1.0000
  H   H19       1.0  0.4595547135049114  0.2719674920233689  0.36113657944745403  1.0000
  H   H20       1.0  0.5404459594700604  0.7719667817500389  0.6388629844315995  1.0000
  H   H21       1.0  0.3758026702215752  0.5940020578756642  0.2470058158330113  1.0000
  H   H22       1.0  0.6241967900282112  0.09399975005493165  0.7529942642900752  1.0000
  H   H23       1.0  0.2682181177451797  0.9062552813200657  0.33397350787784125  1.0000
  H   H24       1.0  0.7317808629596398  0.4062528003992364  0.6660269898202189  1.0000
  H   H25       1.0  0.443185799194371  0.48169409530407886  0.043735294718702515  1.0000
  H   H26       1.0  0.5568132889591397  0.9816983365725245  0.956265186923287  1.0000
  H   H27       1.0  0.34139690644829224  0.7002271057325766  0.03343937610152165  1.0000
  H   H28       1.0  0.6586017729532688  0.2002307957641478  0.9665611283460935  1.0000
  H   H29       1.0  0.31377019895419783  0.17368454590448634  0.11262458060997717  1.0000
  H   H30       1.0  0.686232526612696  0.6737039606330881  0.8873735653866016  1.0000
  H   H31       1.0  0.18725688633158158  0.32495173985046855  0.14226993710638122  1.0000
  H   H32       1.0  0.8127498270277346  0.8249644751866623  0.8577327546781707  1.0000
  H   H33       1.0  0.20855788575056064  0.23976103989804134  0.010975752722814501  1.0000
  H   H34       1.0  0.7914434059968045  0.7397701864993258  0.9890241381712526  1.0000
  H   H35       1.0  0.010076730573756807  0.7760844456056473  0.12211613189642095  1.0000
  H   H36       1.0  0.9899239957431035  0.27608440075656937  0.877885195253653  1.0000
  H   H37       1.0  0.005980597452411487  0.017183728823091625  0.03109325808652617  1.0000
  H   H38       1.0  0.9940207760056424  0.5171849465358724  0.9689074780048609  1.0000
  H   H39       1.0  0.01005984592483129  0.0707414305240203  0.16918467846251314  1.0000
  H   H40       1.0  0.9899422731740227  0.5707418494633799  0.8308149920655008  1.0000
  C   C1        1.0  0.25468314409982135  0.7644944552190224  0.7054318306919033  1.0000
  C   C2        1.0  0.745316911611314  0.2644974815818537  0.29456808972915416  1.0000
  C   C3        1.0  0.26917166143680843  0.67640952914482  0.8225177878144909  1.0000
  C   C4        1.0  0.7308260221730808  0.1764181932699959  0.17748094346749851  1.0000
  C   C5        1.0  0.3020379756503338  0.010368787811390888  0.6958928394758371  1.0000
  C   C6        1.0  0.6979616402147698  0.5103705891014105  0.30410913431230846  1.0000
  C   C7        1.0  0.12972111144370113  0.750870058029541  0.671912555117527  1.0000
  C   C8        1.0  0.8702792400024691  0.25087404131546176  0.32808736702458924  1.0000
  C   C9        1.0  0.08378993954833631  0.5537237144301661  0.6206572054714845  1.0000
  C   C10       1.0  0.9162123360659709  0.0537233349470807  0.3793423668206155  1.0000
  C   C11       1.0  0.9690727746483517  0.5427519768464827  0.5919089532448161  1.0000
  C   C12       1.0  0.03092905816399587  0.04275346674216921  0.40808951556105405  1.0000
  C   C13       1.0  0.898373640821899  0.7267601643868198  0.6165066535210678  1.0000
  C   C14       1.0  0.10162743302020319  0.22676117858119105  0.3834923433266448  1.0000
  C   C15       1.0  0.9430789706665438  0.9217426899558846  0.6699478353138308  1.0000
  C   C16       1.0  0.05692065669299825  0.42174329052398934  0.33005071552054066  1.0000
  C   C17       1.0  0.05808275709698208  0.9343863613106903  0.6967585857216038  1.0000
  C   C18       1.0  0.9419167937161942  0.4343890134955583  0.3032417030953521  1.0000
  C   C19       1.0  0.3351249347660407  0.5988635844554449  0.5456662951114284  1.0000
  C   C20       1.0  0.6648763310965052  0.09886467744791652  0.4543343016298396  1.0000
  C   C21       1.0  0.3991183615673488  0.4161731484896208  0.5055949489377617  1.0000
  C   C22       1.0  0.6008828165460909  0.916173544294386  0.49440510625898015  1.0000
  C   C23       1.0  0.4129839889057319  0.4126128949333606  0.39669499959221105  1.0000
  C   C24       1.0  0.5870165495187496  0.9126123460670104  0.6033048947838467  1.0000
  C   C25       1.0  0.36644145231795366  0.591091413787391  0.3324659235514495  1.0000
  C   C26       1.0  0.6335583312852004  0.09108890551910424  0.6675343408756577  1.0000
  C   C27       1.0  0.30643670893603064  0.7646560486811721  0.3811760911110525  1.0000
  C   C28       1.0  0.6935632272099411  0.26465409178877625  0.6188244336149231  1.0000
  C   C29       1.0  0.22302544394734078  0.18585646043634638  0.09461938151903557  1.0000
  C   C30       1.0  0.7769773039702562  0.6858681841408967  0.905380143374658  1.0000
  C   C31       1.0  0.1668542996917323  0.956799126824482  0.11173432516622209  1.0000
  C   C32       1.0  0.8331465714427863  0.45680769222688195  0.888265842379868  1.0000
  C   C33       1.0  0.040750206021442345  0.9526428365907477  0.10848337032408407  1.0000
  C   C34       1.0  0.95925100391857  0.45264340571580497  0.8915174115541221  1.0000
  N   N1        1.0  0.38849490414347043  0.5794432315227923  0.9951223765072866  1.0000
  N   N2        1.0  0.6114991113443605  0.07944958008727997  0.0048776136432632025  1.0000
  N   N3        1.0  0.2895218221784326  0.7692104830640488  0.4862898022806781  1.0000
  N   N4        1.0  0.7104789002291468  0.26920952342553073  0.5137110144750081  1.0000
  O   O1        1.0  0.3205774458721533  0.5906502799839026  0.6529017324631833  1.0000
  O   O2        1.0  0.6794249624176886  0.09065149489219002  0.3470984948352628  1.0000
  O   O3        1.0  0.48292922225799195  0.8280567258038789  0.8518730627603537  1.0000
  O   O4        1.0  0.5170657724947294  0.32808632453284997  0.14812721172235277  1.0000
  O   O5        1.0  0.22184485780933388  0.7760512499173857  0.12731596937902318  1.0000
  O   O6        1.0  0.7781560777868824  0.27606557882749383  0.8726867493617615  1.0000
  F   F1        1.0  0.22433480877933423  0.836902148736471  0.889305302698883  1.0000
  F   F2        1.0  0.7756614166713799  0.3369156876598066  0.11069378050236456  1.0000
  F   F3        1.0  0.21147417521625753  0.47088207570716956  0.8349427781386832  1.0000
  F   F4        1.0  0.7885295935777409  0.9709045236835933  0.16505197071300148  1.0000
  S   S1        1.0  0.4197691315001016  0.6073739048342958  0.8720694134321553  1.0000
  S   S2        1.0  0.580212007921455  0.1073954383533945  0.1279311023750992  1.0000
