data_image0
_chemical_formula_structural       H28B2C12O8F8
_chemical_formula_sum              "H28 B2 C12 O8 F8"
_cell_length_a       7.12803346632213
_cell_length_b       7.98326760921441
_cell_length_c       10.694100904165644
_cell_angle_alpha    95.85686703413195
_cell_angle_beta     109.80340898193789
_cell_angle_gamma    110.85212596383525

_space_group_name_H-M_alt    "P 1"
_space_group_IT_number       1

loop_
  _space_group_symop_operation_xyz
  'x, y, z'

loop_
  _atom_site_type_symbol
  _atom_site_label
  _atom_site_symmetry_multiplicity
  _atom_site_fract_x
  _atom_site_fract_y
  _atom_site_fract_z
  _atom_site_occupancy
  H   H1        1.0  0.7283632631785315  0.10902266541567658  0.038106989632029825  1.0000
  H   H2        1.0  0.27163673656113974  0.8909773343402454  0.9618930100851464  1.0000
  H   H3        1.0  0.6911816150762786  0.15261752631036266  0.8937940155623524  1.0000
  H   H4        1.0  0.30881838466339245  0.8473824734455593  0.1062059841548239  1.0000
  H   H5        1.0  0.9091346000284861  0.7077645372043472  0.7021514972337902  1.0000
  H   H6        1.0  0.09086540090596779  0.29223546421024554  0.2978485035431428  1.0000
  H   H7        1.0  0.9430729349864672  0.7341749782556175  0.5464434145819241  1.0000
  H   H8        1.0  0.05692706537278855  0.2658250218080902  0.45355658616191935  1.0000
  H   H9        1.0  0.16776623862732787  0.565200591114979  0.5808648742694991  1.0000
  H   H10       1.0  0.8322337611123432  0.434799408640943  0.4191351254476771  1.0000
  H   H11       1.0  0.14835045583900971  0.5327528427575947  0.739939918480779  1.0000
  H   H12       1.0  0.8516495439006614  0.46724715699832725  0.26006008123639723  1.0000
  H   H13       1.0  0.5037026988602047  0.5424647659080091  0.7090577171040142  1.0000
  H   H14       1.0  0.4962973014990509  0.4575352341556986  0.29094228363982916  1.0000
  H   H15       1.0  0.5742620800694507  0.7837894909248093  0.7207824985654548  1.0000
  H   H16       1.0  0.42573792028980495  0.21621050913889828  0.2792175021783886  1.0000
  H   H17       1.0  0.8921764683980747  0.8131273122135185  0.9409254108788908  1.0000
  H   H18       1.0  0.10782353134159638  0.18687268754240344  0.059074588838285494  1.0000
  H   H19       1.0  0.7731452788459444  0.5751839481128407  0.9319931608643935  1.0000
  H   H20       1.0  0.2268547208937267  0.42481605164308134  0.06800683885278261  1.0000
  H   H21       1.0  0.6830357254888021  0.6756766660726544  0.13970256660011685  1.0000
  H   H22       1.0  0.31696427425086904  0.32432333368326755  0.8602974331170593  1.0000
  H   H23       1.0  0.9616434610562503  0.7168258387245484  0.1709326441771312  1.0000
  H   H24       1.0  0.03835653868342059  0.2831741610313735  0.829067355540045  1.0000
  H   H25       1.0  0.10861371108365528  0.9952073199770693  0.3690587349411225  1.0000
  H   H26       1.0  0.8913862892756005  0.004792680086638434  0.6309412658027209  1.0000
  H   H27       1.0  0.8239654158656131  0.9197347534693697  0.33950442295549516  1.0000
  H   H28       1.0  0.17603458449364254  0.08026524659433794  0.6604955777883483  1.0000
  B   B1        1.0  0.6466445934814049  0.25313980570826744  0.6461485526741119  1.0000
  B   B2        1.0  0.35335540687785083  0.7468601943554402  0.3538514480697317  1.0000
  C   C1        1.0  0.01608747771948928  0.7951312001610913  0.6583157285052101  1.0000
  C   C2        1.0  0.9839125220201819  0.20486879959483084  0.34168427121196615  1.0000
  C   C3        1.0  0.24186738962641882  0.6274230659394928  0.6929281889296915  1.0000
  C   C4        1.0  0.7581326101132523  0.3725769338164292  0.3070718107874847  1.0000
  C   C5        1.0  0.48021061121633624  0.6627897643684959  0.7496847470877799  1.0000
  C   C6        1.0  0.5197893891429194  0.3372102356952118  0.25031525365606355  1.0000
  C   C7        1.0  0.7684260504873615  0.7084910469949129  0.9660272258652481  1.0000
  C   C8        1.0  0.23157394925230979  0.291508952761009  0.03397277385192821  1.0000
  C   C9        1.0  0.8255414566938126  0.753999460090829  0.11772754350796903  1.0000
  C   C10       1.0  0.1744585430458585  0.24600053966509294  0.882272456209207  1.0000
  C   C11       1.0  0.9549411874353464  0.007254581921845454  0.3114093123150558  1.0000
  C   C12       1.0  0.04505881230432462  0.9927454178340765  0.6885906874021205  1.0000
  O   O1        1.0  0.7716485188318722  0.20794635260905212  0.993374734494543  1.0000
  O   O2        1.0  0.22835148090779891  0.7920536471468699  0.006625265222633253  1.0000
  O   O3        1.0  0.23045246461198002  0.8003709601705967  0.7179966234561549  1.0000
  O   O4        1.0  0.7695475357472756  0.19962903989311107  0.2820033772876886  1.0000
  O   O5        1.0  0.5560282957126653  0.7011594408113074  0.8959338599323214  1.0000
  O   O6        1.0  0.4439717046022041  0.29884056029549966  0.10406613981794426  1.0000
  O   O7        1.0  0.8918369556989586  0.9480718134540156  0.16620635243241366  1.0000
  O   O8        1.0  0.10816304404071257  0.051928186301906314  0.8337936472847626  1.0000
  F   F1        1.0  0.7637540841394005  0.23779416647870852  0.565748483807961  1.0000
  F   F2        1.0  0.23624591621985516  0.7622058335849992  0.43425151693588254  1.0000
  F   F3        1.0  0.7756661815456237  0.4219310885409179  0.7512863986347487  1.0000
  F   F4        1.0  0.22433381881363185  0.5780689115227897  0.24871360210909482  1.0000
  F   F5        1.0  0.4433924406020355  0.2532626100332796  0.5656756385470364  1.0000
  F   F6        1.0  0.5566075597572202  0.7467373900304282  0.43432436219680703  1.0000
  F   F7        1.0  0.6125559264370928  0.1035972336881162  0.7103047919842514  1.0000
  F   F8        1.0  0.38744407330257835  0.8964027660678058  0.28969520773292484  1.0000
