data_image0
_chemical_formula_structural       H4C14N2F4I2
_chemical_formula_sum              "H4 C14 N2 F4 I2"
_cell_length_a       4.353041820242829
_cell_length_b       6.1134705886079646
_cell_length_c       13.869444687321081
_cell_angle_alpha    87.09391771574118
_cell_angle_beta     88.81847154746346
_cell_angle_gamma    82.4306930148991

_space_group_name_H-M_alt    "P 1"
_space_group_IT_number       1

loop_
  _space_group_symop_operation_xyz
  'x, y, z'

loop_
  _atom_site_type_symbol
  _atom_site_label
  _atom_site_symmetry_multiplicity
  _atom_site_fract_x
  _atom_site_fract_y
  _atom_site_fract_z
  _atom_site_occupancy
  H   H1        1.0  0.19160291562453735  0.9064682746021931  0.8343738475924684  1.0000
  H   H2        1.0  0.8083970847496503  0.09353172511691486  0.16562615210569417  1.0000
  H   H3        1.0  0.8666916387755774  0.6592722111596601  0.9285922648206932  1.0000
  H   H4        1.0  0.1333083615986102  0.34072778855944785  0.07140773487746922  1.0000
  C   C1        1.0  0.8885895924529607  0.8709034705035391  0.5779513206548241  1.0000
  C   C2        1.0  0.11141040792122728  0.12909652921556874  0.4220486790433384  1.0000
  C   C3        1.0  0.039361189886296374  0.053255503348967795  0.5940715860632337  1.0000
  C   C4        1.0  0.9606388104878916  0.94674449637014  0.4059284136349287  1.0000
  C   C5        1.0  0.8500872529647979  0.820558428457076  0.4822561539831748  1.0000
  C   C6        1.0  0.14991274737205507  0.1794415711969837  0.5177438464369672  1.0000
  C   C7        1.0  0.17703905354098276  0.13709682099197468  0.947774233048071  1.0000
  C   C8        1.0  0.8229609467958703  0.8629031786620851  0.052225767372071186  1.0000
  C   C9        1.0  0.10759701291549939  0.9448783538106919  0.9067644828126505  1.0000
  C   C10       1.0  0.8924029874586884  0.055121645908416034  0.09323551688551192  1.0000
  C   C11       1.0  0.9288850619726309  0.8076178610821771  0.9593010400288426  1.0000
  C   C12       1.0  0.07111493836422206  0.19238213857188252  0.04069896039129948  1.0000
  C   C13       1.0  0.49852805930352995  0.39707733728698136  0.8520759837306582  1.0000
  C   C14       1.0  0.5014719407634859  0.602922664082893  0.14792401596097  1.0000
  N   N1        1.0  0.35170947881646897  0.2757229803189365  0.8957716420878938  1.0000
  N   N2        1.0  0.6482905192608003  0.7242770193986351  0.10422835760966666  1.0000
  F   F1        1.0  0.08286252798646272  0.11141097824630512  0.685375884561165  1.0000
  F   F2        1.0  0.9171374723877251  0.8885890214728028  0.3146241151369974  1.0000
  F   F3        1.0  0.7018156134753696  0.6479134234191586  0.4618943174135897  1.0000
  F   F4        1.0  0.29818438689881827  0.3520865762999494  0.5381056822845728  1.0000
  I   I1        1.0  0.7347892506573661  0.6742020628901009  0.6927494017238714  1.0000
  I   I2        1.0  0.26521074940964984  0.32579793847977334  0.3072505979677567  1.0000
