data_image0
_chemical_formula_structural       H52C48N2O10F2S4Cl4
_chemical_formula_sum              "H52 C48 N2 O10 F2 S4 Cl4"
_cell_length_a       8.19308086004035
_cell_length_b       12.948972273934503
_cell_length_c       14.186284792009658
_cell_angle_alpha    116.87157028041486
_cell_angle_beta     90.97203977962548
_cell_angle_gamma    105.44827053445121

_space_group_name_H-M_alt    "P 1"
_space_group_IT_number       1

loop_
  _space_group_symop_operation_xyz
  'x, y, z'

loop_
  _atom_site_type_symbol
  _atom_site_label
  _atom_site_symmetry_multiplicity
  _atom_site_fract_x
  _atom_site_fract_y
  _atom_site_fract_z
  _atom_site_occupancy
  H   H1        1.0  0.06038770863964431  0.9779800753701843  0.3346208888176109  1.0000
  H   H2        1.0  0.9396122909576967  0.022019924598364233  0.6653791111731541  1.0000
  H   H3        1.0  0.6812272472609802  0.2979510923913342  0.7959599278323127  1.0000
  H   H4        1.0  0.31877275233636093  0.7020489075772144  0.20404007215845227  1.0000
  H   H5        1.0  0.3606112155331659  0.2312151346164252  0.7860089439054092  1.0000
  H   H6        1.0  0.6393887840641751  0.7687848653521233  0.2139910560853556  1.0000
  H   H7        1.0  0.17575837661487906  0.11800123576047243  0.6051742999417979  1.0000
  H   H8        1.0  0.824241622982462  0.8819987642080761  0.3948257000489669  1.0000
  H   H9        1.0  0.8976391532486921  0.17815866078202983  0.6303835911759782  1.0000
  H   H10       1.0  0.10236084634864892  0.8218413391865187  0.36961640881478675  1.0000
  H   H11       1.0  0.8801429251674099  0.2411500865962215  0.5451923253588465  1.0000
  H   H12       1.0  0.11985707564742733  0.7588499133656215  0.4548076746258908  1.0000
  H   H13       1.0  0.06806648787102655  0.6740087156479022  0.7763710887734042  1.0000
  H   H14       1.0  0.9319335117263144  0.3259912843206463  0.2236289112173606  1.0000
  H   H15       1.0  0.2437450230730853  0.6936787298286583  0.9286602121975166  1.0000
  H   H16       1.0  0.7562549777417518  0.3063212701331846  0.07133978778722068  1.0000
  H   H17       1.0  0.06597287553429701  0.30438376669587314  0.8041549829617659  1.0000
  H   H18       1.0  0.9340271240630441  0.6956162332726755  0.19584501702899898  1.0000
  H   H19       1.0  0.9948225332365429  0.5995752330165556  0.5914584902064404  1.0000
  H   H20       1.0  0.005177467578293989  0.40042476694528734  0.4085415097782969  1.0000
  H   H21       1.0  0.8229988900064399  0.6240645527695104  0.6654705471102011  1.0000
  H   H22       1.0  0.1770011108083973  0.37593544719233263  0.3345294528745361  1.0000
  H   H23       1.0  0.6300331688394876  0.6187916125787254  0.33452617345975155  1.0000
  H   H24       1.0  0.3699668307578534  0.3812083873898231  0.6654738265310133  1.0000
  H   H25       1.0  0.4520673273649584  0.2545488991166757  0.29727531638030474  1.0000
  H   H26       1.0  0.5479326722323825  0.7454511008518728  0.7027246836104601  1.0000
  H   H27       1.0  0.6397913613317814  0.32294361576849906  0.4658405875707445  1.0000
  H   H28       1.0  0.36020863826555966  0.6770563842000495  0.5341594124200204  1.0000
  H   H29       1.0  0.870631934730607  0.7080552401148206  0.0014810375610282997  1.0000
  H   H30       1.0  0.12936806608423015  0.2919447598470224  0.9985189624237091  1.0000
  H   H31       1.0  0.9965657436430934  0.7978423880159059  0.9461421708300608  1.0000
  H   H32       1.0  0.0034342559542475766  0.20215761195264265  0.05385782916070401  1.0000
  H   H33       1.0  0.8231070493915987  0.8420782324259138  0.014012533143419477  1.0000
  H   H34       1.0  0.1768929502057422  0.15792176754263462  0.9859874668473454  1.0000
  H   H35       1.0  0.011069881628243463  0.055375113548278405  0.12524931492331293  1.0000
  H   H36       1.0  0.9889301181821556  0.9446248868487152  0.8747506858679417  1.0000
  H   H37       1.0  0.1943503316413868  0.018598043990883335  0.06278414035784484  1.0000
  H   H38       1.0  0.8056496691734503  0.9814019559709596  0.9372158596268925  1.0000
  H   H39       1.0  0.21465506954036984  0.09706982542818492  0.20715927715962262  1.0000
  H   H40       1.0  0.7853449300569713  0.9029301745403637  0.7928407228311423  1.0000
  H   H41       1.0  0.45313667527020807  0.892266483648861  0.03846062121452656  1.0000
  H   H42       1.0  0.5468633243271329  0.10773351631968756  0.9615393787762383  1.0000
  H   H43       1.0  0.4377557916706892  0.913062992535467  0.17205780665017859  1.0000
  H   H44       1.0  0.5622442079266519  0.0869370074330816  0.8279421933405863  1.0000
  H   H45       1.0  0.6217248731356121  0.8778452285667531  0.11178853676579434  1.0000
  H   H46       1.0  0.37827512767922505  0.1221547713950899  0.888211463218943  1.0000
  H   H47       1.0  0.821442542897705  0.04650265559864765  0.2716203216575399  1.0000
  H   H48       1.0  0.17855745791713204  0.9534973443631953  0.7283796783271974  1.0000
  H   H49       1.0  0.6535338018420436  0.09951229659628542  0.3434043918977749  1.0000
  H   H50       1.0  0.34646619775529747  0.9004877033722631  0.65659560809299  1.0000
  H   H51       1.0  0.8311662881060031  0.20459560052462997  0.3292397399414117  1.0000
  H   H52       1.0  0.16883371149133794  0.7954043994439187  0.6707602600493532  1.0000
  C   C1        1.0  0.6652084849858327  0.22045718530128205  0.6236424578852777  1.0000
  C   C2        1.0  0.3347915146115084  0.7795428146672665  0.37635754210548716  1.0000
  C   C3        1.0  0.5960773579103411  0.24827936492941047  0.7190919120701259  1.0000
  C   C4        1.0  0.40392264168699993  0.7517206350391381  0.28090808792063887  1.0000
  C   C5        1.0  0.4188501307754917  0.21183017647258187  0.7137743034164694  1.0000
  C   C6        1.0  0.5811498688218494  0.7881698234959668  0.2862256965742955  1.0000
  C   C7        1.0  0.31476971557913824  0.1492995877598068  0.6138332736734365  1.0000
  C   C8        1.0  0.6852302852356987  0.8507004122020362  0.38616672631130067  1.0000
  C   C9        1.0  0.3942301673851096  0.12909991901703222  0.5234630743249591  1.0000
  C   C10       1.0  0.6057698334297276  0.8709000809448109  0.47653692565977823  1.0000
  C   C11       1.0  0.8567745434919511  0.24915632799632506  0.6237962966237885  1.0000
  C   C12       1.0  0.1432254561053898  0.7508436719722235  0.37620370336697634  1.0000
  C   C13       1.0  0.9620046199589972  0.37190965991186453  0.7113113017403407  1.0000
  C   C14       1.0  0.037995380855839894  0.6280903400499783  0.2886886982443965  1.0000
  C   C15       1.0  0.9625417011139555  0.4770134686054224  0.703886736744492  1.0000
  C   C16       1.0  0.03745829848338545  0.5229865313631261  0.2961132632462728  1.0000
  C   C17       1.0  0.06398408792421008  0.5920557758444434  0.7814997133164785  1.0000
  C   C18       1.0  0.9360159116731309  0.40794422412410525  0.2185002866742864  1.0000
  C   C19       1.0  0.16422899860298942  0.6039242941347547  0.8686476759952104  1.0000
  C   C20       1.0  0.8357710009943516  0.39607570583379387  0.13135232399555452  1.0000
  C   C21       1.0  0.16204986426314336  0.5006468971229414  0.8769955067456726  1.0000
  C   C22       1.0  0.8379501353341977  0.49935310284560713  0.1230044932450922  1.0000
  C   C23       1.0  0.0628300419831467  0.38512198840107725  0.798590878599525  1.0000
  C   C24       1.0  0.9371699576141943  0.6148780115674713  0.20140912139123993  1.0000
  C   C25       1.0  0.8630442587293072  0.5553306566697149  0.5976327285623737  1.0000
  C   C26       1.0  0.13695574086803386  0.44466934329883373  0.4023672714283913  1.0000
  C   C27       1.0  0.7439839516130959  0.508291919164565  0.49560636262614977  1.0000
  C   C28       1.0  0.25601604798424515  0.4917080808039836  0.5043936373646151  1.0000
  C   C29       1.0  0.7345513870628554  0.5875339038596384  0.4558706685896677  1.0000
  C   C30       1.0  0.2654486137519817  0.41246609610220447  0.5441293313950696  1.0000
  C   C31       1.0  0.6311251768018469  0.5531488372090897  0.3620116790201844  1.0000
  C   C32       1.0  0.3688748240129902  0.4468511627527532  0.6379883209645528  1.0000
  C   C33       1.0  0.5303502632457513  0.43175951714101846  0.3050785097883306  1.0000
  C   C34       1.0  0.46964973756908573  0.5682404828208244  0.6949214901964067  1.0000
  C   C35       1.0  0.5318842301656729  0.3488293384976938  0.34194470012243905  1.0000
  C   C36       1.0  0.4681157694316682  0.6511706614708547  0.6580552998683257  1.0000
  C   C37       1.0  0.6388818950891748  0.38768734992120985  0.43686970591148905  1.0000
  C   C38       1.0  0.36111810450816617  0.6123126500473387  0.5631302940792758  1.0000
  C   C39       1.0  0.29019503767088045  0.06703807721212207  0.41381762870169775  1.0000
  C   C40       1.0  0.7098049619264606  0.9329619227564265  0.5861823712890671  1.0000
  C   C41       1.0  0.923731663787758  0.799856432768424  0.010710971091121292  1.0000
  C   C42       1.0  0.07626833580958295  0.20014356720012452  0.9892890288996435  1.0000
  C   C43       1.0  0.12800696837467912  0.03129129931472059  0.13204658191404656  1.0000
  C   C44       1.0  0.8719930324401579  0.9687087006471226  0.8679534180706908  1.0000
  C   C45       1.0  0.5253469284346399  0.924162721411168  0.11737399882169382  1.0000
  C   C46       1.0  0.4746530723801971  0.07583727855067489  0.8826260011630433  1.0000
  C   C47       1.0  0.7467962253050818  0.11036670768592072  0.29116992513474366  1.0000
  C   C48       1.0  0.2532037742922592  0.889633292282628  0.7088300748560213  1.0000
  N   N1        1.0  0.5654153396633337  0.1637104542695824  0.5277503984113908  1.0000
  N   N2        1.0  0.43458465993400736  0.8362895456989663  0.47224960157937407  1.0000
  O   O1        1.0  0.8601013670275672  0.4553091837214322  0.615512045976954  1.0000
  O   O2        1.0  0.13989863256977364  0.5446908162471163  0.38448795401381086  1.0000
  O   O3        1.0  0.12301468141713687  0.0237878894299461  0.4126666671687778  1.0000
  O   O4        1.0  0.8769853193977002  0.9762121105318968  0.5873333328159595  1.0000
  O   O5        1.0  0.35384994421946253  0.056677973874942854  0.33293948059613393  1.0000
  O   O6        1.0  0.6461500553778785  0.9433220260936056  0.6670605193946308  1.0000
  O   O7        1.0  0.9560510089742179  0.9003149003340373  0.22044908160085436  1.0000
  O   O8        1.0  0.0439489918406192  0.09968509962780571  0.7795509183838829  1.0000
  O   O9        1.0  0.7626226044735773  0.09668909139764463  0.0977145426585957  1.0000
  O   O10       1.0  0.2373773963412598  0.9033109085641983  0.9022854573261416  1.0000
  F   F1        1.0  0.8335588479520512  0.7067237881781566  0.5138296297197779  1.0000
  F   F2        1.0  0.16644115164528994  0.293276211790392  0.486170370270987  1.0000
  S   S1        1.0  0.07097735567768658  0.8885393620582016  0.13373935245475752  1.0000
  S   S2        1.0  0.9290226439196544  0.11146063791034685  0.8662606475360074  1.0000
  S   S3        1.0  0.6311302974175804  0.08477285759986616  0.16964621127674315  1.0000
  S   S4        1.0  0.3688697021797606  0.9152271423686825  0.8303537887140218  1.0000
  Cl  Cl1       1.0  0.2869733666865843  0.5142176090665297  0.9849749208064831  1.0000
  Cl  Cl2       1.0  0.7130266329107567  0.48578239090201886  0.015025079184281883  1.0000
  Cl  Cl3       1.0  0.39998551839142127  0.3845385401451735  0.1864622005409359  1.0000
  Cl  Cl4       1.0  0.6000144812059197  0.615461459823375  0.813537799449829  1.0000
