data_image0
_chemical_formula_structural       H90C74N2O20S2Cl4
_chemical_formula_sum              "H90 C74 N2 O20 S2 Cl4"
_cell_length_a       9.85546709644059
_cell_length_b       13.677004183200395
_cell_length_c       14.45946114694712
_cell_angle_alpha    90.0
_cell_angle_beta     101.69536044626653
_cell_angle_gamma    90.0

_space_group_name_H-M_alt    "P 1"
_space_group_IT_number       1

loop_
  _space_group_symop_operation_xyz
  'x, y, z'

loop_
  _atom_site_type_symbol
  _atom_site_label
  _atom_site_symmetry_multiplicity
  _atom_site_fract_x
  _atom_site_fract_y
  _atom_site_fract_z
  _atom_site_occupancy
  H   H1        1.0  0.19541499579158406  0.40958569837105685  0.7708375903775325  1.0000
  H   H2        1.0  0.8045850041450643  0.9095856982540577  0.22916240996567477  1.0000
  H   H3        1.0  0.6019017048139126  0.5681966427666578  0.11781222921597242  1.0000
  H   H4        1.0  0.39809829512273576  0.06819664288365698  0.8821877711272348  1.0000
  H   H5        1.0  0.5252296743998237  0.6745184030382649  0.15644455909463206  1.0000
  H   H6        1.0  0.4747703253239312  0.17451840242410982  0.843555440542327  1.0000
  H   H7        1.0  0.09414334185323443  0.40802536105492054  0.10213299684186782  1.0000
  H   H8        1.0  0.9058566580834138  0.9080253616690757  0.8978670035013394  1.0000
  H   H9        1.0  0.6284988774793756  0.695557127319233  0.3706132912499105  1.0000
  H   H10       1.0  0.37150112245727274  0.19555712743623216  0.6293867090932967  1.0000
  H   H11       1.0  0.6742500678029318  0.5752175311654454  0.4014430401074251  1.0000
  H   H12       1.0  0.32574993192082313  0.07521753055129023  0.598556959529534  1.0000
  H   H13       1.0  0.25173617573211055  0.7119292397351263  0.8556342045468558  1.0000
  H   H14       1.0  0.7482638242045377  0.21192923985212547  0.1443657957963514  1.0000
  H   H15       1.0  0.31928222788917343  0.6607454036681704  0.022883643341316304  1.0000
  H   H16       1.0  0.6807177720474749  0.16074540378516952  0.9771163570018909  1.0000
  H   H17       1.0  0.28032906605140107  0.6033215651228333  0.14030068896011696  1.0000
  H   H18       1.0  0.7196709336723539  0.10332156523983238  0.859699310676842  1.0000
  H   H19       1.0  0.9905761656953888  0.44112537798377893  0.286471735927814  1.0000
  H   H20       1.0  0.00942383424125957  0.9411253778667797  0.7135282644153933  1.0000
  H   H21       1.0  0.05753379282611762  0.3300263229826538  0.25026829070738943  1.0000
  H   H22       1.0  0.9424662081246014  0.8300263228656546  0.7497317096338322  1.0000
  H   H23       1.0  0.8975888754114352  0.37748444036754697  0.18729279118841924  1.0000
  H   H24       1.0  0.10241112452521318  0.8774844409817021  0.8127072091547879  1.0000
  H   H25       1.0  0.5125297889252439  0.46653761193095544  0.23406257417978524  1.0000
  H   H26       1.0  0.4874702110114044  0.9665376118139563  0.765937426163422  1.0000
  H   H27       1.0  0.4118975577818738  0.6567760314816293  0.3112352836362408  1.0000
  H   H28       1.0  0.5881024421547744  0.15677603159862857  0.6887647167069664  1.0000
  H   H29       1.0  0.45067532270387706  0.5438153275653657  0.3721222162561055  1.0000
  H   H30       1.0  0.5493246782468421  0.04381532768236484  0.6278777840851161  1.0000
  H   H31       1.0  0.2155490138249845  0.5260499911842852  0.27886585621869675  1.0000
  H   H32       1.0  0.7844509861116638  0.026049991301284353  0.7211341441245105  1.0000
  H   H33       1.0  0.2766342663927154  0.4108641537817438  0.2472996592194887  1.0000
  H   H34       1.0  0.7233657335439329  0.9108641536647446  0.7527003411237185  1.0000
  H   H35       1.0  0.7583354356434537  0.5488001743261602  0.2710122604185162  1.0000
  H   H36       1.0  0.24166456429319458  0.048800173712005124  0.7289877399246911  1.0000
  H   H37       1.0  0.7576370750187554  0.6785248396281803  0.25866791948672785  1.0000
  H   H38       1.0  0.24236292593196349  0.17852483974517946  0.7413320808544938  1.0000
  H   H39       1.0  0.9885597716549892  0.5980620544115359  0.1770210971191635  1.0000
  H   H40       1.0  0.01144022806876565  0.09806205452853511  0.8229789025177955  1.0000
  H   H41       1.0  0.8970967821090698  0.5271443499926554  0.08122054600736149  1.0000
  H   H42       1.0  0.10290321884164913  0.02714435010965445  0.9187794543338601  1.0000
  H   H43       1.0  0.053131935205325505  0.58596700071526  0.07145363527226524  1.0000
  H   H44       1.0  0.9468680645184295  0.08596700083225912  0.9285463643646937  1.0000
  H   H45       1.0  0.9511438843319874  0.575595573749241  0.4975651868976157  1.0000
  H   H46       1.0  0.048856115604660834  0.07559557386624008  0.5024348134455916  1.0000
  H   H47       1.0  0.10239988804879055  0.8155699596627493  0.5879245366332471  1.0000
  H   H48       1.0  0.8976001129019284  0.31556995977974844  0.4120754637079745  1.0000
  H   H49       1.0  0.48501429449663713  0.8954035975979613  0.17396296873244507  1.0000
  H   H50       1.0  0.5149857054400112  0.3954035977149604  0.8260370316107621  1.0000
  H   H51       1.0  0.11371089719831483  0.830498165961815  0.9687773368558384  1.0000
  H   H52       1.0  0.8862891027383335  0.33049816607881416  0.031222663487368938  1.0000
  H   H53       1.0  0.49894710531055575  0.7795060451246622  0.8350657564319032  1.0000
  H   H54       1.0  0.5010528946260926  0.2795060452416612  0.16493424391130412  1.0000
  H   H55       1.0  0.9951542679450779  0.7840509644043062  0.09887094925779466  1.0000
  H   H56       1.0  0.004845731991570436  0.2840509645213053  0.9011290510854126  1.0000
  H   H57       1.0  0.9903502322209493  0.8175558748263465  0.4255569499786521  1.0000
  H   H58       1.0  0.009649767715698965  0.31755587494334564  0.5744430503645552  1.0000
  H   H59       1.0  0.3676329699498778  0.8471719175338231  0.3030355732915812  1.0000
  H   H60       1.0  0.6323670297738772  0.3471719176508223  0.6969644263453779  1.0000
  H   H61       1.0  0.8956081108775  0.538582649484598  0.7315903671620848  1.0000
  H   H62       1.0  0.10439188905914837  0.0385826496015972  0.26840963318112254  1.0000
  H   H63       1.0  0.85185811914754  0.5324156907800301  0.8452315848788201  1.0000
  H   H64       1.0  0.1481418807891082  0.032415690897029246  0.15476841546438713  1.0000
  H   H65       1.0  0.9526507404476333  0.6306148425832961  0.8169348707590128  1.0000
  H   H66       1.0  0.04734925948901506  0.13061484270029527  0.18306512958419446  1.0000
  H   H67       1.0  0.514609146637747  0.7062465961562447  0.5480469694987914  1.0000
  H   H68       1.0  0.485390853086008  0.2062465962732439  0.45195303013816757  1.0000
  H   H69       1.0  0.43351790477863517  0.9665969106186606  0.001962646493396867  1.0000
  H   H70       1.0  0.5664820951580132  0.46659691073565973  0.9980373538498104  1.0000
  H   H71       1.0  0.30492736165708434  0.9053672218079608  0.9169027237940851  1.0000
  H   H72       1.0  0.6950726380666706  0.40536722192495994  0.0830972758428739  1.0000
  H   H73       1.0  0.45657600273765847  0.8434168327716877  0.9748128844485022  1.0000
  H   H74       1.0  0.5434239969860966  0.3434168328886868  0.0251871151884568  1.0000
  H   H75       1.0  0.7296768666021574  0.6101789052788889  0.6043760298783977  1.0000
  H   H76       1.0  0.27032313333449093  0.11017890539588794  0.3956239704648096  1.0000
  H   H77       1.0  0.7149533988101625  0.6849264674135652  0.8918958404772911  1.0000
  H   H78       1.0  0.2850466011264858  0.1849264675305643  0.10810415986591622  1.0000
  H   H79       1.0  0.31031998677091605  0.36992946278503513  0.4172672162562125  1.0000
  H   H80       1.0  0.6896800131657322  0.869929462668036  0.5827327840869948  1.0000
  H   H81       1.0  0.15771652412302062  0.43554106588026914  0.43587213675248415  1.0000
  H   H82       1.0  0.8422834756007344  0.93554106576327  0.5641278628844749  1.0000
  H   H83       1.0  0.16783558024037656  0.3038666936363769  0.4484694485759373  1.0000
  H   H84       1.0  0.8321644196962718  0.8038666935193778  0.5515305517672701  1.0000
  H   H85       1.0  0.44726561438461754  0.5135598414620361  0.6461445215429368  1.0000
  H   H86       1.0  0.5527343855520308  0.013559841579035267  0.3538554788002706  1.0000
  H   H87       1.0  0.3369189108719686  0.5505740057643198  0.5369639604020393  1.0000
  H   H88       1.0  0.6630810890646796  0.0505740058813189  0.46303603994116793  1.0000
  H   H89       1.0  0.4849051510785568  0.4713007398153512  0.5359593026491749  1.0000
  H   H90       1.0  0.5150948486451982  0.9713007396983521  0.4640406969877841  1.0000
  C   C1        1.0  0.22413520874671067  0.46479844963478406  0.8256232904976021  1.0000
  C   C2        1.0  0.7758647911899376  0.9647984495177849  0.17437670984560513  1.0000
  C   C3        1.0  0.5708619588895003  0.6026655040527473  0.17869933303492144  1.0000
  C   C4        1.0  0.4291380408342546  0.10266550343859218  0.8213006666020376  1.0000
  C   C5        1.0  0.2629630907290333  0.43628989580404587  0.9197395096431833  1.0000
  C   C6        1.0  0.7370369089947216  0.9362898956870468  0.08026048999377575  1.0000
  C   C7        1.0  0.29501125651338694  0.5057996530042181  0.9933278553502015  1.0000
  C   C8        1.0  0.704988743210368  0.005799653121217282  0.006672144286757445  1.0000
  C   C9        1.0  0.0811654471219616  0.45531817103990985  0.16151983650718724  1.0000
  C   C10       1.0  0.9188345526017934  0.9553181709229106  0.8384801631297717  1.0000
  C   C11       1.0  0.25429404542456563  0.6346119766974431  0.8743463947411704  1.0000
  C   C12       1.0  0.7457059545120827  0.13461197681444215  0.1256536056020368  1.0000
  C   C13       1.0  0.2921769463922094  0.6051439327748528  0.9684282356333896  1.0000
  C   C14       1.0  0.7078230533315456  0.10514393289185191  0.03157176400356933  1.0000
  C   C15       1.0  0.3225542197834261  0.5310058674194666  0.16407711969397432  1.0000
  C   C16       1.0  0.6774457801532221  0.031005867536465795  0.8359228806492328  1.0000
  C   C17       1.0  0.0022839099915064644  0.39771960928998856  0.22447600581845462  1.0000
  C   C18       1.0  0.9977160897322486  0.8977196091729894  0.7755239938185045  1.0000
  C   C19       1.0  0.4693250639960166  0.540809920134805  0.221758515009693  1.0000
  C   C20       1.0  0.5306749357277384  0.04080992025180416  0.7782414846272661  1.0000
  C   C21       1.0  0.47691003542441346  0.5909504846044965  0.31725382291611937  1.0000
  C   C22       1.0  0.5230899645122348  0.09095048472149567  0.6827461774270879  1.0000
  C   C23       1.0  0.22616814829367735  0.47938490784798304  0.21853405255913433  1.0000
  C   C24       1.0  0.7738318514300775  0.9793849077309839  0.7814659470778246  1.0000
  C   C25       1.0  0.692644923896973  0.6142406661189006  0.2618888119220188  1.0000
  C   C26       1.0  0.3073550760396753  0.11424066623589968  0.7381111884211884  1.0000
  C   C27       1.0  0.2190066369256746  0.5643716304102049  0.8036423072106377  1.0000
  C   C28       1.0  0.7809933638121511  0.06437163052720404  0.19635769242433587  1.0000
  C   C29       1.0  0.001004893745448003  0.5467353032753282  0.12075911599101191  1.0000
  C   C30       1.0  0.9989951061912004  0.046735302661173025  0.8792408843521953  1.0000
  C   C31       1.0  0.093484954837011  0.7905905946334073  0.28179541173194717  1.0000
  C   C32       1.0  0.906515044886744  0.29059059475040644  0.7182045879050118  1.0000
  C   C33       1.0  0.17268760660710603  0.8139171437611671  0.20840535583946584  1.0000
  C   C34       1.0  0.827312393116649  0.3139171438781662  0.7915946437974932  1.0000
  C   C35       1.0  0.35735201058764554  0.7975282060232283  0.659136733733869  1.0000
  C   C36       1.0  0.6426479893490027  0.2975282061402274  0.3408632666093383  1.0000
  C   C37       1.0  0.16698311593642148  0.8270621042797016  0.5351113983199288  1.0000
  C   C38       1.0  0.8330168850142976  0.3270621043967007  0.46488860202129284  1.0000
  C   C39       1.0  0.17776146163710857  0.937966444856211  0.5213366312367012  1.0000
  C   C40       1.0  0.8222385382995397  0.4379664449732101  0.4786633691065061  1.0000
  C   C41       1.0  0.377484615484853  0.8706453263081178  0.1571003346795081  1.0000
  C   C42       1.0  0.6225153852529727  0.37064532642511694  0.8428996649554653  1.0000
  C   C43       1.0  0.16937511203772718  0.8345029399069219  0.042013627146211575  1.0000
  C   C44       1.0  0.8306248878989211  0.33450293929276687  0.9579863731969958  1.0000
  C   C45       1.0  0.5499480408301959  0.7417085806305749  0.7852153177091071  1.0000
  C   C46       1.0  0.45005195910645246  0.24170858074757398  0.21478468263410022  1.0000
  C   C47       1.0  0.10263001083319034  0.8081293017060164  0.11410656233688547  1.0000
  C   C48       1.0  0.8973699888905646  0.3081293018230155  0.8858934373000735  1.0000
  C   C49       1.0  0.09241462590533084  0.7823569545400365  0.4427232916157599  1.0000
  C   C50       1.0  0.9075853740313174  0.2823569546570356  0.5572767087274474  1.0000
  C   C51       1.0  0.49127278289555265  0.7464766540424483  0.6883149932211734  1.0000
  C   C52       1.0  0.5087272170410957  0.24647665415944747  0.311685007122034  1.0000
  C   C53       1.0  0.3116394386236586  0.8442840248731983  0.22992552925858323  1.0000
  C   C54       1.0  0.6883605613129897  0.34428402499019745  0.770074471084624  1.0000
  C   C55       1.0  0.8656953416115384  0.5818390762631093  0.7879811209222141  1.0000
  C   C56       1.0  0.13430465811221665  0.08183907638010846  0.21201887871474498  1.0000
  C   C57       1.0  0.06988980585741034  0.6723528798284103  0.44919529187317336  1.0000
  C   C58       1.0  0.9301101940792379  0.1723528799454094  0.5508047084700338  1.0000
  C   C59       1.0  0.5583179561900011  0.700259046623973  0.6233827996564648  1.0000
  C   C60       1.0  0.44168204454782445  0.20025904674097217  0.3766171999785085  1.0000
  C   C61       1.0  0.37801676599211703  0.8973606621452456  0.9844990611942055  1.0000
  C   C62       1.0  0.6219832339445314  0.39736066226224465  0.015500939149001913  1.0000
  C   C63       1.0  0.3071245429370378  0.8672444616613749  0.06221615968987354  1.0000
  C   C64       1.0  0.6928754569996105  0.36724446177837405  0.9377838406533338  1.0000
  C   C65       1.0  0.73679179823484  0.6398806012467073  0.7523372545626306  1.0000
  C   C66       1.0  0.26320820148891494  0.13988060136370645  0.2476627450743285  1.0000
  C   C67       1.0  0.6799076718679763  0.6475661527455592  0.655385415607736  1.0000
  C   C68       1.0  0.32009232785577874  0.14756615286255836  0.34461458402922307  1.0000
  C   C69       1.0  0.6707128453104463  0.6888414468405489  0.8164269356677669  1.0000
  C   C70       1.0  0.32928715462620195  0.18884144695754804  0.18357306467544038  1.0000
  C   C71       1.0  0.22630122571274255  0.37265306800596176  0.45656314976676343  1.0000
  C   C72       1.0  0.7736987740110124  0.8726530678889627  0.5434368498701956  1.0000
  C   C73       1.0  0.4026456546949817  0.4919063451237247  0.5734295225938569  1.0000
  C   C74       1.0  0.5973543462557372  0.9919063450067255  0.4265704777473647  1.0000
  N   N1        1.0  0.6256703385420941  0.622040967893396  0.3465513311380099  1.0000
  N   N2        1.0  0.374329661181661  0.12204096801039514  0.6534486684989491  1.0000
  O   O1        1.0  0.3302755216152139  0.47013401866894694  0.08244127120177457  1.0000
  O   O2        1.0  0.6697244781085412  0.9701340185519478  0.9175587284351845  1.0000
  O   O3        1.0  0.16810621917044213  0.8052557082294365  0.3706079519132024  1.0000
  O   O4        1.0  0.8318937805533129  0.3052557083464356  0.6293920477237567  1.0000
  O   O5        1.0  0.2941358714145628  0.9784544320340011  0.5310649832807626  1.0000
  O   O6        1.0  0.7058641293232628  0.47845443215100025  0.4689350163542108  1.0000
  O   O7        1.0  0.2986902035053528  0.7808758180478153  0.5667419120475071  1.0000
  O   O8        1.0  0.7013097964312954  0.2808758181648144  0.43325808829570017  1.0000
  O   O9        1.0  0.9723360281714428  0.7629421794589437  0.266263081724646  1.0000
  O   O10       1.0  0.02766397176520542  0.26294217957594285  0.7337369186185613  1.0000
  O   O11       1.0  0.9655716349190064  0.6548078453467546  0.49128761064968707  1.0000
  O   O12       1.0  0.03442836501764188  0.15480784546375373  0.5087123896935202  1.0000
  O   O13       1.0  0.05845260669384435  0.9777285566985096  0.49970691968242564  1.0000
  O   O14       1.0  0.9415473932428039  0.4777285568155087  0.5002930806607816  1.0000
  O   O15       1.0  0.14232664406086143  0.6113071326153222  0.4195158964816655  1.0000
  O   O16       1.0  0.8576733556628935  0.11130713200116703  0.5804841031552936  1.0000
  O   O17       1.0  0.3015375972452709  0.8471832014376616  0.7117146096370552  1.0000
  O   O18       1.0  0.698462402478484  0.34718320155466065  0.2882853899999038  1.0000
  O   O19       1.0  0.4059840257119354  0.30413888774775794  0.6055796486163911  1.0000
  O   O20       1.0  0.5940159740118196  0.8041388876307588  0.39442035102056794  1.0000
  S   S1        1.0  0.2988488289214556  0.38558642882318483  0.5798343424499989  1.0000
  S   S2        1.0  0.7011511720292634  0.8855864294373399  0.4201656578912227  1.0000
  Cl  Cl1       1.0  0.2727040803051188  0.3126867340768246  0.9466202497398826  1.0000
  Cl  Cl2       1.0  0.7272959196315295  0.8126867346909797  0.0533797506033248  1.0000
  Cl  Cl3       1.0  0.16305182123151538  0.6006754249655863  0.6875344736405932  1.0000
  Cl  Cl4       1.0  0.8369481787051328  0.1006754250825855  0.31246552670261407  1.0000
