data_image0
_chemical_formula_structural       H36B4C6O30
_chemical_formula_sum              "H36 B4 C6 O30"
_cell_length_a       10.564609282253201
_cell_length_b       3.539523953568779
_cell_length_c       17.855280485717625
_cell_angle_alpha    90.0
_cell_angle_beta     88.83687324853553
_cell_angle_gamma    90.0

_space_group_name_H-M_alt    "P 1"
_space_group_IT_number       1

loop_
  _space_group_symop_operation_xyz
  'x, y, z'

loop_
  _atom_site_type_symbol
  _atom_site_label
  _atom_site_symmetry_multiplicity
  _atom_site_fract_x
  _atom_site_fract_y
  _atom_site_fract_z
  _atom_site_occupancy
  H   H1        1.0  0.6471704899388068  0.3747896404719789  0.5605305466618876  1.0000
  H   H2        1.0  0.14717049051896638  0.6252103585197558  0.060530546962277554  1.0000
  H   H3        1.0  0.34864378114947003  0.5061867792118008  0.6479859969324245  1.0000
  H   H4        1.0  0.8486437809878555  0.49381321977993387  0.1479859969172456  1.0000
  H   H5        1.0  0.3797409442158692  0.4990265310167161  0.4500337365031038  1.0000
  H   H6        1.0  0.8797409445768525  0.5009734679750185  0.950033736754767  1.0000
  H   H7        1.0  0.15419081581231422  0.34234822136977905  0.25310384137248093  1.0000
  H   H8        1.0  0.6541908161732976  0.6576517804471944  0.7531038416241442  1.0000
  H   H9        1.0  0.38443968844802995  0.28502558627490193  0.2615382935265584  1.0000
  H   H10       1.0  0.8844396878622781  0.7149744155420715  0.7615382937862845  1.0000
  H   H11       1.0  0.1757143325941322  0.819125571131316  0.8540439607628639  1.0000
  H   H12       1.0  0.6757143324325178  0.18087443068565737  0.3540439607476849  1.0000
  H   H13       1.0  0.07477935444867362  0.8327140312267777  0.7310114356533218  1.0000
  H   H14       1.0  0.5747793552337942  0.1672859705901957  0.2310114356300802  1.0000
  H   H15       1.0  0.07528176204549236  0.28534032916536234  0.5545931201570719  1.0000
  H   H16       1.0  0.5752817618838779  0.7146596698263724  0.05459312014189291  1.0000
  H   H17       1.0  0.9212245414363636  0.0632133170830517  0.6607963152836144  1.0000
  H   H18       1.0  0.42122454107538027  0.9367866847339217  0.1607963150319511  1.0000
  H   H19       1.0  0.8603290162515853  0.5621699064908827  0.3046124365890488  1.0000
  H   H20       1.0  0.36032901641319975  0.437830092500852  0.8046124366042278  1.0000
  H   H21       1.0  0.14890911926039369  0.6989096732925754  0.3786074859833701  1.0000
  H   H22       1.0  0.6489091196269692  0.3010903256991594  0.8786074856749176  1.0000
  H   H23       1.0  0.8836455776332833  0.6325340495980047  0.49633594715845286  1.0000
  H   H24       1.0  0.38364557779489794  0.36746595221896866  0.9963359471736318  1.0000
  H   H25       1.0  0.04032750230093223  0.3342188711019307  0.18272317342368768  1.0000
  H   H26       1.0  0.5403275017151805  0.6657811307150426  0.6827231736834137  1.0000
  H   H27       1.0  0.16685120162189881  0.043615842702334214  0.177324303284955  1.0000
  H   H28       1.0  0.666851201036147  0.9563841562894005  0.677324303544681  1.0000
  H   H29       1.0  0.22997629245694773  0.3044478958571512  0.5242720178958632  1.0000
  H   H30       1.0  0.7299762922953332  0.6955521031345834  0.024272017880684314  1.0000
  H   H31       1.0  0.12505709993473302  0.9993579578500978  0.4841369126308602  1.0000
  H   H32       1.0  0.6250571002957163  0.0006420411416367721  0.9841369128825233  1.0000
  H   H33       1.0  0.6171470525832501  0.201204413175943  0.4462795387996202  1.0000
  H   H34       1.0  0.11714705179812951  0.7987955858157917  0.9462795388228618  1.0000
  H   H35       1.0  0.731114076463518  0.8999576049734739  0.4247523076350514  1.0000
  H   H36       1.0  0.23111407568398964  0.10004239401826079  0.9247523070981772  1.0000
  B   B1        1.0  0.4588169175279926  0.4703435636652346  0.5532238590913324  1.0000
  B   B2        1.0  0.9588169173663781  0.5296564353265001  0.053223859076153436  1.0000
  B   B3        1.0  0.9618686096370054  0.7147138324772019  0.3925293142593345  1.0000
  B   B4        1.0  0.46186860885188485  0.2852861665145327  0.8925293142825762  1.0000
  C   C1        1.0  0.3453120307442413  0.41652515404324747  0.31374377513106205  1.0000
  C   C2        1.0  0.8453120301584897  0.5834748449484873  0.813743775390788  1.0000
  C   C3        1.0  0.16738380281907586  0.6841614075131145  0.7284684066911499  1.0000
  C   C4        1.0  0.6673838026574613  0.3158385943038588  0.22846840667597085  1.0000
  C   C5        1.0  0.8688061930294745  0.23051873661635472  0.6190280698659818  1.0000
  C   C6        1.0  0.3688061926684912  0.76948126237538  0.11902806961431851  1.0000
  O   O1        1.0  0.5794513707474386  0.4269178340992507  0.5231949258871249  1.0000
  O   O2        1.0  0.07945137038645521  0.573082164892484  0.023194925635461557  1.0000
  O   O3        1.0  0.4412314572675082  0.4836768029988508  0.6296219620887988  1.0000
  O   O4        1.0  0.9412314571058937  0.5163231959928839  0.12962196207361987  1.0000
  O   O5        1.0  0.3574257939040694  0.5005622544844212  0.506239727580628  1.0000
  O   O6        1.0  0.857425793742455  0.4994377445073135  0.006239727565449008  1.0000
  O   O7        1.0  0.4184948048706006  0.4586107118623451  0.36695068793197416  1.0000
  O   O8        1.0  0.9184948042848489  0.5413892871293896  0.8669506881917002  1.0000
  O   O9        1.0  0.22827629330126573  0.5125944855298022  0.311620714478861  1.0000
  O   O10       1.0  0.728276293662249  0.48740551346193245  0.8116207147305243  1.0000
  O   O11       1.0  0.22359704409867537  0.6502166986833131  0.7911066511450423  1.0000
  O   O12       1.0  0.7235970439370609  0.3497833031336603  0.2911066511298634  1.0000
  O   O13       1.0  0.20671466646610043  0.5635586158383767  0.6665325822866947  1.0000
  O   O14       1.0  0.706714666304486  0.43644138315335795  0.1665325822715157  1.0000
  O   O15       1.0  0.7489387100037838  0.212069591800098  0.6216268852210507  1.0000
  O   O16       1.0  0.24893871058953546  0.7879304100168754  0.12162688496132477  1.0000
  O   O17       1.0  0.9346011606544719  0.42561980361258944  0.5731421075169926  1.0000
  O   O18       1.0  0.4346011612402238  0.5743801953791452  0.07314210725726662  1.0000
  O   O19       1.0  0.9451489814252707  0.6619232305626135  0.3185798156467735  1.0000
  O   O20       1.0  0.4451489815868852  0.33807676842912127  0.8185798156619525  1.0000
  O   O21       1.0  0.08368940031175885  0.7748271903160346  0.41837964095641095  1.0000
  O   O22       1.0  0.5836894006727421  0.22517281150093868  0.9183796412080742  1.0000
  O   O23       1.0  0.861512040012215  0.7123489946883347  0.4442734626583253  1.0000
  O   O24       1.0  0.3615120401738295  0.2876510043033999  0.9442734626735043  1.0000
  O   O25       1.0  0.10582609709116558  0.1846891527152642  0.21214915115657038  1.0000
  O   O26       1.0  0.6058260965054139  0.8153108462764705  0.7121491514162963  1.0000
  O   O27       1.0  0.1507573922408543  0.13953106306910126  0.5327481727799059  1.0000
  O   O28       1.0  0.6507573920792399  0.8604689359226334  0.032748172764727  1.0000
  O   O29       1.0  0.6517145893152766  0.028670152068806472  0.40580871621995346  1.0000
  O   O30       1.0  0.15171458947689115  0.9713298497481668  0.9058087162351324  1.0000
