data_image0
_chemical_formula_structural       H50C46N6O8S4
_chemical_formula_sum              "H50 C46 N6 O8 S4"
_cell_length_a       5.513080507195601
_cell_length_b       11.46917317801027
_cell_length_c       18.198065259331493
_cell_angle_alpha    84.72446482768856
_cell_angle_beta     81.20767212727007
_cell_angle_gamma    87.77490389503559

_space_group_name_H-M_alt    "P 1"
_space_group_IT_number       1

loop_
  _space_group_symop_operation_xyz
  'x, y, z'

loop_
  _atom_site_type_symbol
  _atom_site_label
  _atom_site_symmetry_multiplicity
  _atom_site_fract_x
  _atom_site_fract_y
  _atom_site_fract_z
  _atom_site_occupancy
  H   H1        1.0  0.6137034018603147  0.3626327433716794  0.4860486266986885  1.0000
  H   H2        1.0  0.3862965992552279  0.6373672566640923  0.5139513732367268  1.0000
  H   H3        1.0  0.643031995984382  0.2768307325891629  0.5728274274469732  1.0000
  H   H4        1.0  0.35696800329543327  0.7231692674532989  0.42717257257138525  1.0000
  H   H5        1.0  0.6154925746592408  0.4345611100257439  0.570236960745494  1.0000
  H   H6        1.0  0.38450742462057436  0.5654388900167181  0.42976303927286447  1.0000
  H   H7        1.0  0.3223061969091242  0.23865159655322601  0.6759482476082593  1.0000
  H   H8        1.0  0.6776938042064183  0.7613484034825458  0.3240517523271559  1.0000
  H   H9        1.0  0.008937185017309772  0.2970678178520933  0.6838036542506474  1.0000
  H   H10       1.0  0.9910628160982327  0.7029321821836784  0.31619634568476784  1.0000
  H   H11       1.0  0.2581059527972542  0.3921202886984796  0.6875968124785065  1.0000
  H   H12       1.0  0.741894046482561  0.6078797113439823  0.31240318753985197  1.0000
  H   H13       1.0  0.9253827957698223  0.00800045346524678  0.28581680229820683  1.0000
  H   H14       1.0  0.07461720350443618  0.9919995465761102  0.714183198269979  1.0000
  H   H15       1.0  0.9126388024426437  0.08448350337086234  0.36818168938383045  1.0000
  H   H16       1.0  0.08736119683717138  0.9155164966715995  0.6318183106345279  1.0000
  H   H17       1.0  0.9056123458948846  0.9252927232424738  0.376353447865901  1.0000
  H   H18       1.0  0.09438765522065792  0.07470727679329796  0.6236465520695142  1.0000
  H   H19       1.0  0.20526777507736632  0.9139540313738571  0.4583061507623193  1.0000
  H   H20       1.0  0.7947322260381764  0.08604596866191447  0.5416938491730959  1.0000
  H   H21       1.0  0.2770896298500164  0.06767432296412215  0.45216478006684413  1.0000
  H   H22       1.0  0.722910369462002  0.9323256762024771  0.5478352200000715  1.0000
  H   H23       1.0  0.518090192044565  0.959066609403848  0.43472635380220126  1.0000
  H   H24       1.0  0.4819098090709776  0.04093339063192369  0.5652736461332141  1.0000
  H   H25       1.0  0.07238683513076366  0.2576139405854555  0.461993636876185  1.0000
  H   H26       1.0  0.9276131641490514  0.7423860594570066  0.5380063631421733  1.0000
  H   H27       1.0  0.6804324392677241  0.2602025551257257  0.3323546656755636  1.0000
  H   H28       1.0  0.31956756001209097  0.7397974449167363  0.6676453343427948  1.0000
  H   H29       1.0  0.4937934851215507  0.3069577115683256  0.21823156332914265  1.0000
  H   H30       1.0  0.5062065141527076  0.6930422884730315  0.7817684372390431  1.0000
  H   H31       1.0  0.07022965030880657  0.550676333472637  0.13428198180624715  1.0000
  H   H32       1.0  0.929770350806736  0.4493236665631346  0.865718018129168  1.0000
  H   H33       1.0  0.25104790795335874  0.5046150762029559  0.25018345290489025  1.0000
  H   H34       1.0  0.7489520913264563  0.49538492383950605  0.7498165471134682  1.0000
  H   H35       1.0  0.48339821589127013  0.29004082183898394  0.08869947308463678  1.0000
  H   H36       1.0  0.516601783388545  0.709959178203478  0.9113005269337215  1.0000
  H   H37       1.0  0.5132900609240645  0.6871889347490876  0.17713916789056663  1.0000
  H   H38       1.0  0.4867099401914781  0.31281106528668406  0.8228608320448486  1.0000
  H   H39       1.0  0.6856118635063347  0.8712848196813251  0.2034814003816913  1.0000
  H   H40       1.0  0.31438813577348046  0.12871518036113686  0.7965185996366672  1.0000
  H   H41       1.0  0.1926779783743999  0.8691773937982196  0.9964159039080739  1.0000
  H   H42       1.0  0.8073220227411426  0.13082260623755204  0.0035840960273413563  1.0000
  H   H43       1.0  0.02106942473960308  0.6828336317847206  0.9723708748681714  1.0000
  H   H44       1.0  0.9789305763759394  0.317166368251051  0.02762912506724386  1.0000
  H   H45       1.0  0.43999135048769034  0.9473985089577657  0.07898419819650877  1.0000
  H   H46       1.0  0.5600086487921248  0.05260149108469635  0.9210158018218496  1.0000
  H   H47       1.0  0.10112954107291294  0.2429108059226405  0.17644471028166067  1.0000
  H   H48       1.0  0.8988704582069023  0.7570891941198212  0.8235552897366978  1.0000
  H   H49       1.0  0.7399024629371368  0.08726744915976539  0.163042928439739  1.0000
  H   H50       1.0  0.26009753634267835  0.9127325508826966  0.8369570715786195  1.0000
  C   C1        1.0  0.5622060980931141  0.35604070782555425  0.5467984333755029  1.0000
  C   C2        1.0  0.43779390302242843  0.6439592922102175  0.45320156655991234  1.0000
  C   C3        1.0  0.202946667092005  0.3146208020592685  0.6637368996924766  1.0000
  C   C4        1.0  0.7970533321878103  0.6853791979831935  0.33626310032588186  1.0000
  C   C5        1.0  0.9751345094700494  0.0040218991418454475  0.34197173229978295  1.0000
  C   C6        1.0  0.024865489809765683  0.9959781009006164  0.6580282677185756  1.0000
  C   C7        1.0  0.3267519568552167  0.9829029703942596  0.4297668549585662  1.0000
  C   C8        1.0  0.6732480442603259  0.017097029641511965  0.5702331449768491  1.0000
  C   C9        1.0  0.0916232739753865  0.35644596034505865  0.3678776915419804  1.0000
  C   C10       1.0  0.9083767253044286  0.6435540396974032  0.632122308476378  1.0000
  C   C11       1.0  0.9782419511854374  0.3800638987407466  0.29906561854548575  1.0000
  C   C12       1.0  0.02175804993010507  0.6199361012950252  0.7009343813899295  1.0000
  C   C13       1.0  0.7659051044177881  0.3234559795860736  0.28886444782859855  1.0000
  C   C14       1.0  0.234094894862027  0.6765440204563883  0.7111355521897599  1.0000
  C   C15       1.0  0.6605684374105049  0.35020930079179663  0.22472065417876602  1.0000
  C   C16       1.0  0.33943156186375356  0.6497906992495605  0.7752793463894198  1.0000
  C   C17       1.0  0.7626280902279955  0.43463996267772403  0.16815326932323899  1.0000
  C   C18       1.0  0.23737191088754714  0.5653600373580475  0.8318467306121763  1.0000
  C   C19       1.0  0.9802610366049759  0.4889062641305209  0.1780319522144248  1.0000
  C   C20       1.0  0.01973896267483923  0.511093735911941  0.8219680478039336  1.0000
  C   C21       1.0  0.08413292414638426  0.4623740714680494  0.24254939441290227  1.0000
  C   C22       1.0  0.9158670769691583  0.5376259285677222  0.7574506055225129  1.0000
  C   C23       1.0  0.6451796483243618  0.4595323057988768  0.10205479322114433  1.0000
  C   C24       1.0  0.3548203527911808  0.5404676942368948  0.8979452067142709  1.0000
  C   C25       1.0  0.5133595781596537  0.38144588230787096  0.06898072949659147  1.0000
  C   C26       1.0  0.4866404211201614  0.618554117734591  0.931019270521767  1.0000
  C   C27       1.0  0.5473655768677884  0.5566046726902264  0.9964155858275994  1.0000
  C   C28       1.0  0.4526344224120268  0.44339532735223564  0.0035844141907590936  1.0000
  C   C29       1.0  0.7588878133040864  0.6733471481052116  0.0733655120056625  1.0000
  C   C30       1.0  0.24111218597572895  0.3266528519372504  0.926634488012696  1.0000
  C   C31       1.0  0.6635473093488029  0.726790479321882  0.13801990055042804  1.0000
  C   C32       1.0  0.3364526899310123  0.2732095207205801  0.8619800994679303  1.0000
  C   C33       1.0  0.7620222609791304  0.8306364308865384  0.1528018593416179  1.0000
  C   C34       1.0  0.23797774013641204  0.1693635691492332  0.8471981405937974  1.0000
  C   C35       1.0  0.9535983436495302  0.881512653370218  0.1020123714803067  1.0000
  C   C36       1.0  0.04640165746601231  0.1184873466655536  0.8979876284551086  1.0000
  C   C37       1.0  0.04564567761543038  0.8292317578822294  0.03655645204899123  1.0000
  C   C38       1.0  0.9543543235001123  0.17076824215354236  0.9634435478864241  1.0000
  C   C39       1.0  0.9481711831105654  0.7250713785890397  0.022524850643800227  1.0000
  C   C40       1.0  0.051828816169249815  0.27492862145342223  0.9774751493745583  1.0000
  C   C41       1.0  0.304424526186303  0.009892443149676104  0.10281610459938809  1.0000
  C   C42       1.0  0.6955754730935122  0.990107556892786  0.8971838954189704  1.0000
  C   C43       1.0  0.12116783601999552  0.15740037664672135  0.15498105397322512  1.0000
  C   C44       1.0  0.878832165095547  0.8425996233890504  0.8450189459621903  1.0000
  C   C45       1.0  0.9390492114612675  0.08068298482648571  0.15069920545525237  1.0000
  C   C46       1.0  0.060950787812990966  0.9193170152148712  0.8493007951129334  1.0000
  N   N1        1.0  0.6644745321831654  0.5667967589087365  0.05734492207832103  1.0000
  N   N2        1.0  0.33552546709664965  0.4332032411337254  0.9426550779400373  1.0000
  N   N3        1.0  0.058777181242079764  0.9860786856026778  0.11706924705524357  1.0000
  N   N4        1.0  0.9412228180321786  0.01392131443867946  0.8829307535129421  1.0000
  N   N5        1.0  0.34801845269075127  0.11233505951993046  0.1255808363391061  1.0000
  N   N6        1.0  0.6519815465890639  0.8876649405225316  0.8744191636792523  1.0000
  O   O1        1.0  0.17441806304899934  0.23218720130388848  0.5346948843983245  1.0000
  O   O2        1.0  0.8255819362308158  0.7678127987385736  0.46530511562003396  1.0000
  O   O3        1.0  0.38221833269462696  0.8787863809883204  0.3026768001736716  1.0000
  O   O4        1.0  0.6177816684209156  0.12121361904745115  0.6973231997617436  1.0000
  O   O5        1.0  0.9915498718557865  0.26689434681816865  0.4136801607763928  1.0000
  O   O6        1.0  0.008450127424028606  0.7331056532242933  0.5863198392419656  1.0000
  O   O7        1.0  0.2616552965978374  0.41372341596667295  0.3820410230229074  1.0000
  O   O8        1.0  0.7383447026819778  0.5862765840757891  0.6179589769954511  1.0000
  S   S1        1.0  0.23465996684881263  0.3473809636191139  0.5646581959768483  1.0000
  S   S2        1.0  0.7653400342667299  0.6526190364166577  0.435341803958567  1.0000
  S   S3        1.0  0.3051924151346118  0.9965328871579429  0.3311852996641254  1.0000
  S   S4        1.0  0.6948075841452034  0.0034671128845190284  0.6688147003542331  1.0000
