data_image0
_chemical_formula_structural       H120C132O16
_chemical_formula_sum              "H120 C132 O16"
_cell_length_a       10.066669137391656
_cell_length_b       18.049904857454614
_cell_length_c       13.461314763516146
_cell_angle_alpha    90.0
_cell_angle_beta     89.86090681013383
_cell_angle_gamma    90.0

_space_group_name_H-M_alt    "P 1"
_space_group_IT_number       1

loop_
  _space_group_symop_operation_xyz
  'x, y, z'

loop_
  _atom_site_type_symbol
  _atom_site_label
  _atom_site_symmetry_multiplicity
  _atom_site_fract_x
  _atom_site_fract_y
  _atom_site_fract_z
  _atom_site_occupancy
  H   H1        1.0  0.11935491372388342  0.5249836192951703  0.47085333681834574  1.0000
  H   H2        1.0  0.11935491372785226  0.9750163809163587  0.9708533363805134  1.0000
  H   H3        1.0  0.8806450859729418  0.475016380845849  0.5291466631855953  1.0000
  H   H4        1.0  0.880645085968973  0.02498361922466072  0.029146663623427594  1.0000
  H   H5        1.0  0.07002128793197585  0.5664009074140742  0.641430828663272  1.0000
  H   H6        1.0  0.07002128792800702  0.9335990927974547  0.1414308291011042  1.0000
  H   H7        1.0  0.9299787127581287  0.43359909272694513  0.358569171349443  1.0000
  H   H8        1.0  0.9299787127620975  0.06640090734356457  0.8585691709116107  1.0000
  H   H9        1.0  0.20842991150251566  0.523743720792838  0.7837060853730008  1.0000
  H   H10       1.0  0.20842991151269064  0.9762562794186911  0.28370608506801315  1.0000
  H   H11       1.0  0.7915700881943094  0.4762562793481813  0.2162939146309404  1.0000
  H   H12       1.0  0.7915700881841343  0.023743720722328335  0.716293914935928  1.0000
  H   H13       1.0  0.3928925708649334  0.4352291107371425  0.7548145609832244  1.0000
  H   H14       1.0  0.39289257087510837  0.06477088933336722  0.25481456067823677  1.0000
  H   H15       1.0  0.6071074288318917  0.564770889403877  0.24518543902071674  1.0000
  H   H16       1.0  0.6071074288217168  0.9352291108076521  0.7451854393257044  1.0000
  H   H17       1.0  0.5112028196548917  0.3512675911630324  0.6444264912720908  1.0000
  H   H18       1.0  0.5112028196650666  0.1487324089074773  0.14442649096710317  1.0000
  H   H19       1.0  0.48879718004193334  0.6487324084239675  0.3555735087318503  1.0000
  H   H20       1.0  0.48879718003175837  0.851267591233542  0.8555735090368379  1.0000
  H   H21       1.0  0.6322640786613372  0.2664707236954528  0.5333769078965166  1.0000
  H   H22       1.0  0.6322640786573683  0.23352927637505685  0.03337690833434885  1.0000
  H   H23       1.0  0.367735921035488  0.7335292764455666  0.4666230921074245  1.0000
  H   H24       1.0  0.3677359210394568  0.7664707237659625  0.9666230916695923  1.0000
  H   H25       1.0  0.6866162911281376  0.22283822002190928  0.36337621911716256  1.0000
  H   H26       1.0  0.6866162911179626  0.2771617800486004  0.8633762194221504  1.0000
  H   H27       1.0  0.3133837095619669  0.7771617801191101  0.6366237808955524  1.0000
  H   H28       1.0  0.31338370957214196  0.7228382200924189  0.13662378059056468  1.0000
  H   H29       1.0  0.5902356064824543  0.2881693034438245  0.2162329195738168  1.0000
  H   H30       1.0  0.5902356064864231  0.21183069662668522  0.7162329191359846  1.0000
  H   H31       1.0  0.40976439420765026  0.7118306966971949  0.7837670804388982  1.0000
  H   H32       1.0  0.4097643942036815  0.7881693035143342  0.28376708087673036  1.0000
  H   H33       1.0  0.42812964634668527  0.3881232940187322  0.23883954186711456  1.0000
  H   H34       1.0  0.4281296463365102  0.11187670605177746  0.7388395421721021  1.0000
  H   H35       1.0  0.5718703533501399  0.6118767061222871  0.7611604581368265  1.0000
  H   H36       1.0  0.5718703533603149  0.8881232935352223  0.2611604578318389  1.0000
  H   H37       1.0  0.16127712763865348  0.35135660049647144  0.3038350369258265  1.0000
  H   H38       1.0  0.16127712762847843  0.14864339957403824  0.8038350372308141  1.0000
  H   H39       1.0  0.8387228720581715  0.648643399644548  0.6961649630781146  1.0000
  H   H40       1.0  0.8387228720683467  0.8513566005669811  0.196164962773127  1.0000
  H   H41       1.0  0.04742779688267976  0.5179032744950581  0.09180170475618281  1.0000
  H   H42       1.0  0.047427796872504736  0.9820967257164709  0.5918017050611705  1.0000
  H   H43       1.0  0.9525722038074248  0.4820967256459612  0.9081982952565322  1.0000
  H   H44       1.0  0.9525722038175998  0.01790327442454845  0.4081982949515445  1.0000
  H   H45       1.0  0.31162570967836434  0.5738004644230875  0.33169549325636627  1.0000
  H   H46       1.0  0.31162570968233316  0.9261995357884415  0.831695492818534  1.0000
  H   H47       1.0  0.6883742900184607  0.4261995357179319  0.6683045067475748  1.0000
  H   H48       1.0  0.6883742900144919  0.0738004643525778  0.16830450718540704  1.0000
  H   H49       1.0  0.8564086963913015  0.22948940521917738  0.22611700969482806  1.0000
  H   H50       1.0  0.8564086963811267  0.2705105948513323  0.7261170099998157  1.0000
  H   H51       1.0  0.1435913033055235  0.7705105943678225  0.773882990309113  1.0000
  H   H52       1.0  0.14359130331569853  0.729489405289687  0.2738829900041254  1.0000
  H   H53       1.0  0.7945020273430898  0.2853723939643183  0.12583883428929507  1.0000
  H   H54       1.0  0.7945020273329149  0.21462760610619142  0.6258388345942827  1.0000
  H   H55       1.0  0.20549797235373515  0.7146276061767012  0.8741611657146461  1.0000
  H   H56       1.0  0.20549797236391024  0.785372394034828  0.37416116540965844  1.0000
  H   H57       1.0  0.04141473106025905  0.1478502530110475  0.19350691228853  1.0000
  H   H58       1.0  0.04141473105008403  0.35214974705946217  0.6935069125935177  1.0000
  H   H59       1.0  0.9585852696298455  0.8521497471299718  0.8064930877241849  1.0000
  H   H60       1.0  0.9585852696400204  0.6478502530815572  0.3064930874191973  1.0000
  H   H61       1.0  0.1716784302262548  0.17143453688189508  0.11168688618849532  1.0000
  H   H62       1.0  0.17167843023022364  0.3285654631886146  0.6116868857506631  1.0000
  H   H63       1.0  0.8283215694705701  0.8285654632591244  0.8883131138154459  1.0000
  H   H64       1.0  0.8283215694666015  0.6714345369524047  0.388313114253278  1.0000
  H   H65       1.0  0.1398217070855553  0.22723288584571494  0.2178868020591631  1.0000
  H   H66       1.0  0.13982170707538027  0.2727671142247947  0.7178868023641507  1.0000
  H   H67       1.0  0.8601782926112698  0.7727671142953044  0.782113197944778  1.0000
  H   H68       1.0  0.860178292621445  0.7272328859162247  0.28211319763979037  1.0000
  H   H69       1.0  0.876754936630546  0.22026624025987596  0.9620238093634579  1.0000
  H   H70       1.0  0.876754936640721  0.2797337598106337  0.4620238090584703  1.0000
  H   H71       1.0  0.1232450630662791  0.7797337598811434  0.03797619064048323  1.0000
  H   H72       1.0  0.1232450630561041  0.7202662397763662  0.5379761909454709  1.0000
  H   H73       1.0  0.008678919897039224  0.15630537347873077  0.9809974238649316  1.0000
  H   H74       1.0  0.008678919907214245  0.34369462659177896  0.48099742355994396  1.0000
  H   H75       1.0  0.9913210807930652  0.8436946266622886  0.01900257614778337  1.0000
  H   H76       1.0  0.9913210807828904  0.656305372995221  0.519002576452771  1.0000
  H   H77       1.0  0.8628618469454135  0.15078244076593983  0.05379463121197164  1.0000
  H   H78       1.0  0.8628618469352387  0.3492175593045698  0.5537946315169593  1.0000
  H   H79       1.0  0.13713815275141145  0.8492175588210601  0.9462053687919696  1.0000
  H   H80       1.0  0.1371381527615865  0.6507824408364495  0.44620536848698183  1.0000
  H   H81       1.0  0.20355560147991464  0.2039491204564238  0.9580370006204514  1.0000
  H   H82       1.0  0.20355560149008964  0.2960508790600664  0.4580370003154638  1.0000
  H   H83       1.0  0.7964443982169105  0.796050879130576  0.04196299938348973  1.0000
  H   H84       1.0  0.7964443982067355  0.7039491205269335  0.5419629996884774  1.0000
  H   H85       1.0  0.10454418601283083  0.2578635675233339  0.8757107149956357  1.0000
  H   H86       1.0  0.104544186008862  0.24213643254717582  0.3757107154334678  1.0000
  H   H87       1.0  0.8954558146772738  0.7421364326176856  0.12428928501707932  1.0000
  H   H88       1.0  0.8954558146812425  0.7578635675938435  0.624289284579247  1.0000
  H   H89       1.0  0.28021520054067967  0.2682034020805737  0.8770048805924529  1.0000
  H   H90       1.0  0.28021520053671084  0.231796597989936  0.3770048810302851  1.0000
  H   H91       1.0  0.7197847991561455  0.7317965980604456  0.12299511941148826  1.0000
  H   H92       1.0  0.7197847991601143  0.7682034021510833  0.622995118973656  1.0000
  H   H93       1.0  0.2954161098653101  0.3988303199851424  0.9158471014080397  1.0000
  H   H94       1.0  0.2954161098613412  0.10116968008536728  0.4158471018458719  1.0000
  H   H95       1.0  0.7045838908247946  0.6011696801558769  0.08415289860467522  1.0000
  H   H96       1.0  0.7045838908287634  0.8988303200556521  0.5841528981668429  1.0000
  H   H97       1.0  0.1246947854402883  0.3991497116963746  0.8852126311264383  1.0000
  H   H98       1.0  0.12469478545046334  0.10085028782011558  0.38521263082145074  1.0000
  H   H99       1.0  0.8753052142565367  0.6008502878906252  0.11478736887750268  1.0000
  H   H100      1.0  0.8753052142463618  0.8991497117668843  0.6147873691824903  1.0000
  H   H101      1.0  0.18100363281535478  0.44305619022125686  0.9956644579524946  1.0000
  H   H102      1.0  0.1810036328255298  0.05694380929523326  0.495664457647507  1.0000
  H   H103      1.0  0.8189963668814704  0.556943809365743  0.004335542051446555  1.0000
  H   H104      1.0  0.8189963668712952  0.9430561902917666  0.5043355423564342  1.0000
  H   H105      1.0  0.30260191048249496  0.261717601688576  0.11466490573138181  1.0000
  H   H106      1.0  0.30260191047232  0.23828239838193366  0.6146649060363696  1.0000
  H   H107      1.0  0.6973980892143301  0.7382823984524434  0.8853350942725593  1.0000
  H   H108      1.0  0.6973980892245052  0.7617176017590856  0.3853350939675717  1.0000
  H   H109      1.0  0.3930126502758883  0.3164273005927317  0.02951589010061153  1.0000
  H   H110      1.0  0.3930126502798571  0.18357269892375838  0.5295158896627793  1.0000
  H   H111      1.0  0.6069873494209368  0.6835726989942681  0.9704841099033297  1.0000
  H   H112      1.0  0.606987349416968  0.8164273006632414  0.47048411034116183  1.0000
  H   H113      1.0  0.3026715636768968  0.35982292545534716  0.12604611581899408  1.0000
  H   H114      1.0  0.3026715636808656  0.14017707461516254  0.6260461153811618  1.0000
  H   H115      1.0  0.6973284360199283  0.6401770746856723  0.8739538841849471  1.0000
  H   H116      1.0  0.6973284360159595  0.8598229249718373  0.37395388462277923  1.0000
  H   H117      1.0  0.13290225222265678  0.6316067835278154  0.116658714348229  1.0000
  H   H118      1.0  0.13290225221248178  0.8683932166837136  0.6166587146532166  1.0000
  H   H119      1.0  0.8670977474741682  0.36839321661320396  0.883341285655712  1.0000
  H   H120      1.0  0.8670977474843434  0.13160678345730573  0.3833412853507244  1.0000
  C   C1        1.0  0.1810309962094545  0.5062628530269513  0.5322720479328256  1.0000
  C   C2        1.0  0.1810309962196295  0.9937371471845777  0.03227204762783793  1.0000
  C   C3        1.0  0.8189690044806501  0.493737147114068  0.4677279520798894  1.0000
  C   C4        1.0  0.8189690044704752  0.006262852956441643  0.967727952384877  1.0000
  C   C5        1.0  0.15279021912659735  0.5289397780984402  0.627519210438312  1.0000
  C   C6        1.0  0.1527902191367724  0.971060222113089  0.12751921013332443  1.0000
  C   C7        1.0  0.8472097815635072  0.47106022204257925  0.37248078957440284  1.0000
  C   C8        1.0  0.8472097815533323  0.028939778027930445  0.8724807898793905  1.0000
  C   C9        1.0  0.2308112300963816  0.5043248477977684  0.7088611621018435  1.0000
  C   C10       1.0  0.2308112301065566  0.9956751524137606  0.20886116179685588  1.0000
  C   C11       1.0  0.769188770593723  0.49567515234325094  0.2911388379108715  1.0000
  C   C12       1.0  0.7691887705835481  0.004324847727258791  0.7911388382158591  1.0000
  C   C13       1.0  0.3332368187847651  0.4555666955000001  0.6929962997621295  1.0000
  C   C14       1.0  0.33323681878079625  0.044433304570509514  0.19299630019996186  1.0000
  C   C15       1.0  0.6667631819053396  0.5444333046410192  0.30700370025058527  1.0000
  C   C16       1.0  0.6667631819093084  0.9555666955705098  0.8070036998127531  1.0000
  C   C17       1.0  0.3648933061562562  0.43010236626226606  0.5956044048052438  1.0000
  C   C18       1.0  0.3648933061522874  0.0698976338082436  0.09560440524307601  1.0000
  C   C19       1.0  0.6351066945338484  0.5698976338787533  0.40439559520747115  1.0000
  C   C20       1.0  0.6351066945378172  0.9301023663327758  0.9043955947696388  1.0000
  C   C21       1.0  0.46223137004354453  0.37596111301369856  0.5800703136071634  1.0000
  C   C22       1.0  0.4622313700395757  0.12403888705681115  0.08007031404499568  1.0000
  C   C23       1.0  0.5377686296532805  0.6240388871273209  0.41992968639677763  1.0000
  C   C24       1.0  0.5377686296572494  0.8759611130842082  0.9199296859589454  1.0000
  C   C25       1.0  0.4943765376914759  0.35101069950423314  0.48466064449529667  1.0000
  C   C26       1.0  0.49437653769544465  0.14898930056627652  0.9846606440574645  1.0000
  C   C27       1.0  0.5056234629986287  0.6489893006367862  0.5153393555174183  1.0000
  C   C28       1.0  0.5056234629946599  0.8510106995747428  0.015339355955250489  1.0000
  C   C29       1.0  0.5870030780126195  0.2925799593796158  0.4686367927529492  1.0000
  C   C30       1.0  0.5870030780165884  0.20742004069089393  0.9686367923151171  1.0000
  C   C31       1.0  0.41299692267748506  0.7074200407614036  0.5313632072597656  1.0000
  C   C32       1.0  0.41299692268766003  0.7925799594501255  0.03136320695477799  1.0000
  C   C33       1.0  0.6182145433547006  0.26883768631034743  0.3744679260198414  1.0000
  C   C34       1.0  0.6182145433445256  0.23116231376016227  0.874467926324829  1.0000
  C   C35       1.0  0.381785457335404  0.731162313830672  0.6255320739928735  1.0000
  C   C36       1.0  0.381785457345579  0.7688376863808571  0.12553207368788588  1.0000
  C   C37       1.0  0.5611593531806177  0.3047456307077563  0.29102155597139906  1.0000
  C   C38       1.0  0.5611593531845865  0.1952543693627534  0.7910215555335668  1.0000
  C   C39       1.0  0.4388406475094868  0.6952543694332631  0.7089784440413159  1.0000
  C   C40       1.0  0.43884064652638244  0.804745630778266  0.20897844372755445  1.0000
  C   C41       1.0  0.4699117330579939  0.36057808843862293  0.30339079951541065  1.0000
  C   C42       1.0  0.4699117330619627  0.13942191107786717  0.8033907990775784  1.0000
  C   C43       1.0  0.5300882676321107  0.6394219111483769  0.6966092004973042  1.0000
  C   C44       1.0  0.5300882676281419  0.8605780885091326  0.19660920093513648  1.0000
  C   C45       1.0  0.4287751698615711  0.3836517070138475  0.3999715357910152  1.0000
  C   C46       1.0  0.4287751708446756  0.11634829305666221  0.8999715361047765  1.0000
  C   C47       1.0  0.571224829835254  0.6163482931271719  0.600028464212926  1.0000
  C   C48       1.0  0.571224829845429  0.8836517065303376  0.10002846390793829  1.0000
  C   C49       1.0  0.32420644364335843  0.43486302348891687  0.41485176473541135  1.0000
  C   C50       1.0  0.32420644363318346  0.06513697658159283  0.9148517650403991  1.0000
  C   C51       1.0  0.6757935560534667  0.5651369766521025  0.5851482352685298  1.0000
  C   C52       1.0  0.6757935560636417  0.9348630235594265  0.08514823496354217  1.0000
  C   C53       1.0  0.2900463859620251  0.4580773281242649  0.5119464520671033  1.0000
  C   C54       1.0  0.29004638595805626  0.041922671946244786  0.011946452504935636  1.0000
  C   C55       1.0  0.7099536147280795  0.5419226720167545  0.4880535479456115  1.0000
  C   C56       1.0  0.7099536147320483  0.9580773281947746  0.9880535475077793  1.0000
  C   C57       1.0  0.24584586428495303  0.4596405086630447  0.3273261347328909  1.0000
  C   C58       1.0  0.24584586427477798  0.04035949140746498  0.8273261350378786  1.0000
  C   C59       1.0  0.754154135411872  0.5403594914779747  0.6726738652710502  1.0000
  C   C60       1.0  0.7541541354220471  0.9596405081795348  0.17267386496606257  1.0000
  C   C61       1.0  0.16720265784652616  0.4079365757409514  0.2767595639192388  1.0000
  C   C62       1.0  0.16720265785049498  0.09206342432955832  0.7767595634814065  1.0000
  C   C63       1.0  0.832797341850299  0.5920634238460485  0.7232404360847023  1.0000
  C   C64       1.0  0.83279734184633  0.907936575811461  0.22324043652253459  1.0000
  C   C65       1.0  0.09613801537039035  0.4284613864214351  0.191792219316131  1.0000
  C   C66       1.0  0.09613801536021532  0.07153861364907457  0.6917922196211186  1.0000
  C   C67       1.0  0.9038619843264348  0.5715386131655648  0.8082077806878101  1.0000
  C   C68       1.0  0.9038619843366096  0.9284613864919448  0.3082077803828225  1.0000
  C   C69       1.0  0.10193847311573297  0.5012645103369211  0.15776610468219446  1.0000
  C   C70       1.0  0.10193847311970178  0.9987354893205885  0.6577661042443622  1.0000
  C   C71       1.0  0.8980615275743715  0.4987354892500787  0.8422338953305205  1.0000
  C   C72       1.0  0.8980615275704028  0.0012645108204309208  0.34223389576835267  1.0000
  C   C73       1.0  0.17820873192333636  0.5535793766731839  0.20929223479623787  1.0000
  C   C74       1.0  0.17820873192730521  0.9464206229843256  0.7092922343584057  1.0000
  C   C75       1.0  0.8217912677734888  0.44642062291381596  0.7907077652077031  1.0000
  C   C76       1.0  0.8217912677695198  0.05357937715669379  0.2907077656455355  1.0000
  C   C77       1.0  0.25058181528116996  0.5329832996890738  0.2935685104218239  1.0000
  C   C78       1.0  0.250581815270995  0.9670166999684358  0.7935685107268116  1.0000
  C   C79       1.0  0.7494181854230785  0.46701669989792616  0.7064314888480712  1.0000
  C   C80       1.0  0.7494181854191097  0.03298329961856404  0.20643148928590335  1.0000
  C   C81       1.0  0.009348842244660741  0.37236028184515324  0.141030263848468  1.0000
  C   C82       1.0  0.009348842234485724  0.12763971822535647  0.6410302641534555  1.0000
  C   C83       1.0  0.9906511574521643  0.6276397182958662  0.858969736155473  1.0000
  C   C84       1.0  0.9906511574623394  0.8723602813616433  0.35896973585048547  1.0000
  C   C85       1.0  0.04829165779289727  0.31480098509512533  0.05776474220364421  1.0000
  C   C86       1.0  0.048291657796866096  0.18519901497538438  0.557764741765812  1.0000
  C   C87       1.0  0.9517083419039278  0.685199015045894  0.9422352578002968  1.0000
  C   C88       1.0  0.951708341899959  0.814800985165635  0.4422352582381292  1.0000
  C   C89       1.0  0.9931766454093179  0.23978310601523808  0.0978882954467432  1.0000
  C   C90       1.0  0.9931766454132867  0.2602168940552716  0.5978882950089109  1.0000
  C   C91       1.0  0.006823354287507201  0.7602168941257813  0.9021117045571979  1.0000
  C   C92       1.0  0.006823354283538375  0.7397831060857477  0.40211170499503013  1.0000
  C   C93       1.0  0.8836454647018461  0.2688980362129426  0.16771925752870775  1.0000
  C   C94       1.0  0.8836454646916712  0.23110196385756704  0.6677192578336955  1.0000
  C   C95       1.0  0.11635453499497894  0.7311019639280768  0.8322807424752333  1.0000
  C   C96       1.0  0.11635453500515398  0.7688980362834523  0.3322807421702457  1.0000
  C   C97       1.0  0.09334276727718334  0.19471736874826004  0.15872096192231638  1.0000
  C   C98       1.0  0.09334276726700833  0.3052826313222497  0.658720962227304  1.0000
  C   C99       1.0  0.9066572334129213  0.8052826313927594  0.8412790380903986  1.0000
  C   C100      1.0  0.9066572334230962  0.6947173688187697  0.3412790377854109  1.0000
  C   C101      1.0  0.9324667578435775  0.18954486724549222  0.018358232441198476  1.0000
  C   C102      1.0  0.9324667578475465  0.31045513282501747  0.5183582320033662  1.0000
  C   C103      1.0  0.06753324185324754  0.8104551328955272  0.9816417675627427  1.0000
  C   C104      1.0  0.06753324184927872  0.689544867316002  0.48164176800057484  1.0000
  C   C105      1.0  0.18254571051907714  0.3203735834436678  0.0020711886095650294  1.0000
  C   C106      1.0  0.1825457105089021  0.17962641662684192  0.5020711889145526  1.0000
  C   C107      1.0  0.8174542901710274  0.6796264166973516  0.9979288114031499  1.0000
  C   C108      1.0  0.8174542901812024  0.8203735835141774  0.4979288110981623  1.0000
  C   C109      1.0  0.300987467386842  0.3138215106801841  0.073265126517453  1.0000
  C   C110      1.0  0.30098746737666704  0.18617848939032558  0.5732651268224407  1.0000
  C   C111      1.0  0.6990125323099832  0.6861784894608353  0.9267348734864882  1.0000
  C   C112      1.0  0.6990125323201581  0.8138215101966743  0.4267348731815005  1.0000
  C   C113      1.0  0.19483834109814527  0.39497728859526904  0.947093894690925  1.0000
  C   C114      1.0  0.19483834109417641  0.10502271147524062  0.4470938951287571  1.0000
  C   C115      1.0  0.8051616585986798  0.6050227115457503  0.05290610531301624  1.0000
  C   C116      1.0  0.8051616586026485  0.8949772886657787  0.552906104875184  1.0000
  C   C117      1.0  0.1923490605320817  0.2587234219171697  0.9239550468115866  1.0000
  C   C118      1.0  0.1923490605422567  0.24127657815334  0.4239550465065989  1.0000
  C   C119      1.0  0.8076509391647435  0.7412765782238497  0.07604495319235455  1.0000
  C   C120      1.0  0.8076509391545684  0.7587234219876793  0.5760449534973422  1.0000
  C   C121      1.0  0.4216133001080954  0.557653251886417  0.013934485513706012  1.0000
  C   C122      1.0  0.4216133001120641  0.9423467477710925  0.5139344850758738  1.0000
  C   C123      1.0  0.5783867005820092  0.44234674825460235  0.9860655144990089  1.0000
  C   C124      1.0  0.5783867005780404  0.05765325181590735  0.4860655149368412  1.0000
  C   C125      1.0  0.45189691600263665  0.5140988007018548  0.08907793828339651  1.0000
  C   C126      1.0  0.4518969159924617  0.9859011989556548  0.5890779385883841  1.0000
  C   C127      1.0  0.5481030836941884  0.4859011994391646  0.9109220617205446  1.0000
  C   C128      1.0  0.5481030837043634  0.014098800631345094  0.4109220614155569  1.0000
  C   C129      1.0  0.4687121624355249  0.5429695240721655  0.9247530879381989  1.0000
  C   C130      1.0  0.4687121624315561  0.957030475585344  0.42475308837603104  1.0000
  C   C131      1.0  0.5312878372613002  0.45703047551483433  0.07524691206574233  1.0000
  C   C132      1.0  0.531287837265269  0.04296952455567536  0.5752469116279101  1.0000
  O   O1        1.0  0.18473419210159053  0.6252542868855605  0.17854462251797154  1.0000
  O   O2        1.0  0.18473419210555936  0.8747457133259685  0.6785446220801393  1.0000
  O   O3        1.0  0.8152658075952345  0.3747457132554588  0.8214553774859695  1.0000
  O   O4        1.0  0.8152658075912659  0.12525428681505085  0.3214553779238018  1.0000
  O   O5        1.0  0.9398820513456119  0.3477383365490564  0.9962343618694931  1.0000
  O   O6        1.0  0.9398820513557871  0.15226166352145332  0.4962343615645056  1.0000
  O   O7        1.0  0.0601179493444926  0.652261663591963  0.003765638143221727  1.0000
  O   O8        1.0  0.06011794933431758  0.8477383366195661  0.5037656384482093  1.0000
  O   O9        1.0  0.9186216285775392  0.4085647452570537  0.0697278529323532  1.0000
  O   O10       1.0  0.918621628581508  0.091435254813456  0.569727852494521  1.0000
  O   O11       1.0  0.08137837111928595  0.5914352548839656  0.9302721470715878  1.0000
  O   O12       1.0  0.08137837111531712  0.9085647453275634  0.43027214750942017  1.0000
  O   O13       1.0  0.9397108495210162  0.33364740244117064  0.21449281426372752  1.0000
  O   O14       1.0  0.939710849510841  0.16635259762933904  0.714492814568715  1.0000
  O   O15       1.0  0.06028915017580896  0.6663525976998488  0.7855071857402135  1.0000
  O   O16       1.0  0.06028915018598399  0.8336474025116803  0.28550718543522596  1.0000
