data_image0
_chemical_formula_structural       H48C28N4O14S2
_chemical_formula_sum              "H48 C28 N4 O14 S2"
_cell_length_a       10.661680747618028
_cell_length_b       10.503107423920335
_cell_length_c       8.758715112666183
_cell_angle_alpha    110.77926348494967
_cell_angle_beta     109.95531597551167
_cell_angle_gamma    90.21533417734169

_space_group_name_H-M_alt    "P 1"
_space_group_IT_number       1

loop_
  _space_group_symop_operation_xyz
  'x, y, z'

loop_
  _atom_site_type_symbol
  _atom_site_label
  _atom_site_symmetry_multiplicity
  _atom_site_fract_x
  _atom_site_fract_y
  _atom_site_fract_z
  _atom_site_occupancy
  H   H1        1.0  0.3268230609663749  0.7651443556696376  0.5111874537191173  1.0000
  H   H2        1.0  0.6731769382838692  0.2348556444334012  0.48881254537069324  1.0000
  H   H3        1.0  0.35172464758423394  0.8587786666889146  0.38733237340516197  1.0000
  H   H4        1.0  0.64827535166601  0.14122133341412396  0.6126676256846484  1.0000
  H   H5        1.0  0.5512634940369612  0.7338986743573978  0.6137797190306967  1.0000
  H   H6        1.0  0.44873650621068056  0.266101325742429  0.38622028047093404  1.0000
  H   H7        1.0  0.5855375212501307  0.8144291497838632  0.48237631733613284  1.0000
  H   H8        1.0  0.41446247899751104  0.18557085031596343  0.5176236821654979  1.0000
  H   H9        1.0  0.794970599772209  0.8352702998319085  0.7143489630704655  1.0000
  H   H10       1.0  0.20502939947803503  0.16472970027113049  0.2856510360193451  1.0000
  H   H11       1.0  0.7439568507585194  0.003320614303328827  0.7645518740694592  1.0000
  H   H12       1.0  0.2560431494899332  0.996679385795013  0.23544812657359468  1.0000
  H   H13       1.0  0.9259343850655456  0.8929752970098819  0.01876506046084064  1.0000
  H   H14       1.0  0.07406561518209613  0.10702470308994502  0.9812349390407898  1.0000
  H   H15       1.0  0.8760414922590029  0.06135619325764125  0.06556924785344283  1.0000
  H   H16       1.0  0.12395850798944973  0.9386438068407007  0.9344307527896114  1.0000
  H   H17       1.0  0.9490231281194057  0.9857048779628476  0.32119492349439666  1.0000
  H   H18       1.0  0.05097687212904693  0.014295122135494198  0.6788050771486573  1.0000
  H   H19       1.0  0.8109385998027678  0.8486310794605476  0.2036018287672143  1.0000
  H   H20       1.0  0.18906140044487396  0.15136892063927918  0.7963981707344164  1.0000
  H   H21       1.0  0.15879733193422313  0.9297174550532695  0.4579185721811515  1.0000
  H   H22       1.0  0.8412026671697079  0.0702825440210052  0.5420814264085694  1.0000
  H   H23       1.0  0.2930683248872252  0.06956685063920343  0.5962070056139652  1.0000
  H   H24       1.0  0.7069316743638296  0.9304331494623505  0.40379299461726875  1.0000
  H   H25       1.0  0.7253306156266469  0.29615613355152837  0.9349168920118891  1.0000
  H   H26       1.0  0.27466938462180573  0.7038438665468135  0.06508310863116502  1.0000
  H   H27       1.0  0.5154846355456678  0.35388886326692637  0.8435320826103456  1.0000
  H   H28       1.0  0.48451536370538706  0.6461111368346276  0.1564679176208883  1.0000
  H   H29       1.0  0.40231615964657036  0.32222786776650336  0.9373825288342594  1.0000
  H   H30       1.0  0.5976838406010714  0.6777721323333232  0.06261747066737118  1.0000
  H   H31       1.0  0.44708299479266717  0.14934203707010216  0.07009342351041244  1.0000
  H   H32       1.0  0.5529170054557854  0.8506579630282397  0.9299065771326417  1.0000
  H   H33       1.0  0.6144654234277589  0.11451500898504631  0.13317178568605592  1.0000
  H   H34       1.0  0.38553457681988296  0.8854849911147803  0.8668282138155747  1.0000
  H   H35       1.0  0.28002717680924  0.44141842873816844  0.6851714813814368  1.0000
  H   H36       1.0  0.7199728222946911  0.5585815703361064  0.31482851720828414  1.0000
  H   H37       1.0  0.3888462525136837  0.5112796058914819  0.5127377751011325  1.0000
  H   H38       1.0  0.6111537477339579  0.4887203942083447  0.48726222440049816  1.0000
  H   H39       1.0  0.014734444994597041  0.3700587060319938  0.06369154742282121  1.0000
  H   H40       1.0  0.9852655552538554  0.629941294066348  0.9363084532202328  1.0000
  H   H41       1.0  0.9083781034707785  0.2980363821184938  0.23702007343792958  1.0000
  H   H42       1.0  0.09162189578027606  0.7019636179830601  0.7629799267933042  1.0000
  H   H43       1.0  0.07858853681770317  0.36201931411568766  0.7151464931061947  1.0000
  H   H44       1.0  0.9214114634307495  0.6379806859826542  0.28485350753685934  1.0000
  H   H45       1.0  0.01872344507951508  0.2017292067602261  0.5352627639189526  1.0000
  H   H46       1.0  0.9812765551689376  0.7982707933381158  0.46473723672410155  1.0000
  H   H47       1.0  0.9181181969530585  0.33535450122739646  0.5440486640526077  1.0000
  H   H48       1.0  0.08188180229799626  0.6646454988741575  0.4559513361786262  1.0000
  C   C1        1.0  0.35538410147834776  0.8690235930624799  0.5186410551659547  1.0000
  C   C2        1.0  0.644615897772707  0.13097640703907398  0.48135894506527904  1.0000
  C   C3        1.0  0.5818060455490355  0.8343083271587004  0.6132668314708201  1.0000
  C   C4        1.0  0.41819395469941717  0.16569167293964154  0.386733169172234  1.0000
  C   C5        1.0  0.7190330765198826  0.8969618101103853  0.751783488472621  1.0000
  C   C6        1.0  0.2809669227311722  0.10303818999116851  0.24821651175861284  1.0000
  C   C7        1.0  0.8487975228284215  0.9553005895231274  0.05195793144959279  1.0000
  C   C8        1.0  0.1512024774200311  0.04469941057521455  0.9480420691934612  1.0000
  C   C9        1.0  0.8453901486327537  0.9537398006495437  0.22153112641097297  1.0000
  C   C10       1.0  0.15460985161569885  0.046260199448797966  0.778468874232081  1.0000
  C   C11       1.0  0.2570827986366746  0.9620682091745001  0.5686317198927604  1.0000
  C   C12       1.0  0.7429172006135694  0.03793179092853873  0.4313682791970502  1.0000
  C   C13       1.0  0.5741741815366875  0.23177275325404004  0.986244553530789  1.0000
  C   C14       1.0  0.42582581871176506  0.7682272468443018  0.013755447112264882  1.0000
  C   C15       1.0  0.08753370058600904  0.3615558064043885  0.47223239655975535  1.0000
  C   C16       1.0  0.9124662996624437  0.6384441936939533  0.5277676040832988  1.0000
  C   C17       1.0  0.22210460935945658  0.42402439986172585  0.5483354125656409  1.0000
  C   C18       1.0  0.7778953908881853  0.5759756002381008  0.4516645869359899  1.0000
  C   C19       1.0  0.2835765997402949  0.464668069791364  0.45203423100719886  1.0000
  C   C20       1.0  0.7164233993644469  0.5353319292814259  0.5479657687239455  1.0000
  C   C21       1.0  0.20915611864392886  0.44266744292168886  0.27712197487190005  1.0000
  C   C22       1.0  0.7908438804608129  0.5573325561511011  0.7228780248592441  1.0000
  C   C23       1.0  0.07384032988743808  0.3825172184601821  0.19854746212682148  1.0000
  C   C24       1.0  0.9261596693628058  0.6174827816428566  0.801452536962989  1.0000
  C   C25       1.0  0.014431110152759382  0.3427410792585366  0.29668496061256344  1.0000
  C   C26       1.0  0.9855688900956933  0.6572589208398052  0.7033150400304906  1.0000
  C   C27       1.0  0.02250564669600555  0.31390885109774314  0.5734397876291173  1.0000
  C   C28       1.0  0.9774943535524471  0.6860911490005988  0.4265602130139367  1.0000
  N   N1        1.0  0.4871847733239355  0.3000741513082113  0.9071598453888169  1.0000
  N   N2        1.0  0.5128152269245172  0.6999258487901305  0.09284015525423728  1.0000
  N   N3        1.0  0.5433746223381827  0.16476021791975773  0.07432802326610259  1.0000
  N   N4        1.0  0.4566253769128721  0.8352397821817961  0.9256719769651311  1.0000
  O   O1        1.0  0.48725430933924346  0.9258032611542868  0.6456808269910373  1.0000
  O   O2        1.0  0.5127456899110004  0.074196738948752  0.35431917209877306  1.0000
  O   O3        1.0  0.7201455217921019  0.8982644861557071  0.9161055712016664  1.0000
  O   O4        1.0  0.27985447745895287  0.10173551394584684  0.08389442902956736  1.0000
  O   O5        1.0  0.758296571921832  0.04642618912216123  0.279189947203098  1.0000
  O   O6        1.0  0.2417034283266207  0.9535738109761807  0.720810053439956  1.0000
  O   O7        1.0  0.6960982222664619  0.22665818655647016  0.9804162119130615  1.0000
  O   O8        1.0  0.30390177798199075  0.7733418135418717  0.01958378872999258  1.0000
  O   O9        1.0  0.21153690298607725  0.6119239364314737  0.12353381832741753  1.0000
  O   O10       1.0  0.7884630972615646  0.388076063668353  0.8764661811742132  1.0000
  O   O11       1.0  0.4271772187764374  0.5409930081033237  0.2579729961140775  1.0000
  O   O12       1.0  0.5728227814712044  0.4590069919965031  0.7420270033875532  1.0000
  O   O13       1.0  0.2562636325086366  0.37897776154427404  0.9859083013214233  1.0000
  O   O14       1.0  0.743736367739816  0.6210222385540678  0.014091699321630758  1.0000
  S   S1        1.0  0.2827404689856395  0.49582014937322105  0.15251812825594913  1.0000
  S   S2        1.0  0.7172595312628132  0.5041798507251207  0.847481872387105  1.0000
