data_image0
_chemical_formula_structural       H108C36N18Br18
_chemical_formula_sum              "H108 C36 N18 Br18"
_cell_length_a       9.554743847050977
_cell_length_b       9.554743847050624
_cell_length_c       23.20207575006903
_cell_angle_alpha    90.0
_cell_angle_beta     90.0
_cell_angle_gamma    120.00000000000124

_space_group_name_H-M_alt    "P 1"
_space_group_IT_number       1

loop_
  _space_group_symop_operation_xyz
  'x, y, z'

loop_
  _atom_site_type_symbol
  _atom_site_label
  _atom_site_symmetry_multiplicity
  _atom_site_fract_x
  _atom_site_fract_y
  _atom_site_fract_z
  _atom_site_occupancy
  H   H1        1.0  0.8319168191413495  0.7272821756799692  0.32766472111778105  1.0000
  H   H2        1.0  0.27271782493542207  0.10463464378387063  0.6609980544501226  1.0000
  H   H3        1.0  0.8953653565759896  0.16808318127879224  0.9943313877824642  1.0000
  H   H4        1.0  0.7272857908569041  0.8319164691678415  0.6723371640554008  1.0000
  H   H5        1.0  0.16808353073066173  0.8953693215827463  0.005670497390717662  1.0000
  H   H6        1.0  0.10463067870941206  0.27271420847625705  0.33900383072305923  1.0000
  H   H7        1.0  0.5004400809868387  0.5585113542580937  0.16688934695804014  1.0000
  H   H8        1.0  0.4414886459551319  0.9419287261783761  0.5002226802903817  1.0000
  H   H9        1.0  0.05807127335500746  0.4995599187903749  0.8335560136227234  1.0000
  H   H10       1.0  0.5585080750391432  0.5004326877087804  0.833109416942684  1.0000
  H   H11       1.0  0.4995673120102593  0.05807538639851715  0.16644275027800087  1.0000
  H   H12       1.0  0.9419246129991032  0.4414919254268243  0.4997760836103425  1.0000
  H   H13       1.0  0.6499881078247512  0.444738951970603  0.3131113228081925  1.0000
  H   H14       1.0  0.5552610481298393  0.20524915542514297  0.646444656140534  1.0000
  H   H15       1.0  0.7947508440939153  0.35001189213837597  0.9797779894728758  1.0000
  H   H16       1.0  0.4447364903215857  0.6499840858203726  0.6868899132851328  1.0000
  H   H17       1.0  0.350015914706832  0.794752404794515  0.020223246620449636  1.0000
  H   H18       1.0  0.20524759587281532  0.5552635098204672  0.35355657995279116  1.0000
  H   H19       1.0  0.829054649318452  0.5227415151497143  0.26906658771603337  1.0000
  H   H20       1.0  0.47725848540010496  0.3063131339268479  0.602399921048375  1.0000
  H   H21       1.0  0.6936868669808046  0.1709453516660697  0.9357332543807165  1.0000
  H   H22       1.0  0.5227401753309833  0.829049346490887  0.7309356176871176  1.0000
  H   H23       1.0  0.17095065426566222  0.6936908289282321  0.06426895102243442  1.0000
  H   H24       1.0  0.3063091713045876  0.4772598250162359  0.397602284354776  1.0000
  H   H25       1.0  0.5497562410842938  0.6136090128212075  0.34179258207000746  1.0000
  H   H26       1.0  0.3863909870405282  0.9361472279143765  0.675125915402349  1.0000
  H   H27       1.0  0.06385277217215603  0.45024375849126075  0.008459248737665898  1.0000
  H   H28       1.0  0.6136093268966898  0.5497529375786631  0.658207571792561  1.0000
  H   H29       1.0  0.4502470615722526  0.06385638922091882  0.9915409051249024  1.0000
  H   H30       1.0  0.9361436105329631  0.3863906727345401  0.3248742384602194  1.0000
  H   H31       1.0  0.6393548472841112  0.8174732411494029  0.3168419390225518  1.0000
  H   H32       1.0  0.18252675848442645  0.821881606188568  0.6501752723548934  1.0000
  H   H33       1.0  0.17811839348183986  0.3606451518888739  0.983508605687235  1.0000
  H   H34       1.0  0.8174727935027267  0.6393500926153284  0.6831580980401221  1.0000
  H   H35       1.0  0.36064990721995765  0.1781227011397825  0.016491431375438965  1.0000
  H   H36       1.0  0.8218772993258214  0.18252720577901102  0.3498247647077805  1.0000
  H   H37       1.0  0.6706396570958522  0.44870730185431307  0.18443452500094815  1.0000
  H   H38       1.0  0.5512926976813944  0.22193235472198194  0.5177678583332898  1.0000
  H   H39       1.0  0.7780676452712593  0.32936034295782685  0.8511011916656314  1.0000
  H   H40       1.0  0.4487084571525732  0.6706327200801147  0.8155664796475678  1.0000
  H   H41       1.0  0.3293672803433894  0.7780757375065187  0.14889981298288457  1.0000
  H   H42       1.0  0.22192426235866988  0.5512915428487214  0.4822331463152261  1.0000
  H   H43       1.0  0.4917986222685557  0.3598782021695027  0.22865860611562805  1.0000
  H   H44       1.0  0.6401217977865246  0.13192041951553188  0.5619919394479697  1.0000
  H   H45       1.0  0.8680795799934257  0.5082013778490873  0.8953252727803113  1.0000
  H   H46       1.0  0.3598781227130304  0.4917928695283107  0.7713423476753691  1.0000
  H   H47       1.0  0.5082071300086113  0.868085253153573  0.10467568101068603  1.0000
  H   H48       1.0  0.1319147471329909  0.6401218777534713  0.43800901434302764  1.0000
  H   H49       1.0  0.8773295827126562  0.9249777534544447  0.25556981685064784  1.0000
  H   H50       1.0  0.07502224614666743  0.9523518295168255  0.5889031501829894  1.0000
  H   H51       1.0  0.04764817039105397  0.12267041625557466  0.9222364835153309  1.0000
  H   H52       1.0  0.9249784009682502  0.877319961588522  0.744430329253994  1.0000
  H   H53       1.0  0.12268003935464224  0.04765843954976965  0.07776366258931086  1.0000
  H   H54       1.0  0.9523415603298684  0.07502159960434046  0.41109699592165244  1.0000
  H   H55       1.0  0.9537516355458049  0.7959173515510888  0.23455950487463642  1.0000
  H   H56       1.0  0.20408264820964467  0.15783428395901503  0.567892838206978  1.0000
  H   H57       1.0  0.8421657162930564  0.046248364024018204  0.9012261715393195  1.0000
  H   H58       1.0  0.7959221623951879  0.9537469164427019  0.7654412666050864  1.0000
  H   H59       1.0  0.04625308352026072  0.8421752454753533  0.09877459994040323  1.0000
  H   H60       1.0  0.15782475393918402  0.2040778385172998  0.43210793327274477  1.0000
  H   H61       1.0  0.4708435633836526  0.7317404074318329  0.2360018990966232  1.0000
  H   H62       1.0  0.2682595920535712  0.7391031556042114  0.5693352324289648  1.0000
  H   H63       1.0  0.26089684381315376  0.5291564361908005  0.9026685657613064  1.0000
  H   H64       1.0  0.7317395571028403  0.4708368021878181  0.763997907383233  1.0000
  H   H65       1.0  0.5291631978558428  0.260902755301312  0.09733124071854997  1.0000
  H   H66       1.0  0.7390972450898227  0.2682604420449918  0.4306645740508916  1.0000
  H   H67       1.0  0.3792757584443529  0.5263012316942692  0.2594966767135948  1.0000
  H   H68       1.0  0.47369876934713473  0.8529745274641566  0.5928300100459363  1.0000
  H   H69       1.0  0.1470254731097455  0.6207242412769293  0.9261633433782779  1.0000
  H   H70       1.0  0.5262990393690653  0.3792727750500826  0.740502981072669  1.0000
  H   H71       1.0  0.6207272242297274  0.14702626405681904  0.0738363144079858  1.0000
  H   H72       1.0  0.8529737354031125  0.4737009604272202  0.4071696477403274  1.0000
  H   H73       1.0  0.7845002822621647  0.7175940135054273  0.1520354664814636  1.0000
  H   H74       1.0  0.28240598584055376  0.06690626781388  0.4853687998138052  1.0000
  H   H75       1.0  0.9330937319457873  0.2154997182148145  0.8187021331461467  1.0000
  H   H76       1.0  0.7175876986463751  0.7844923790303029  0.8479638439220879  1.0000
  H   H77       1.0  0.21550762069877344  0.9330953191786393  0.18129717725740485  1.0000
  H   H78       1.0  0.06690467990522893  0.28241230101790243  0.5146305105897464  1.0000
  H   H79       1.0  0.7046642580088747  0.8427364930222847  0.17547694886686535  1.0000
  H   H80       1.0  0.15726350693307226  0.86192776453984  0.5088102821992069  1.0000
  H   H81       1.0  0.13807223595928628  0.2953357428732302  0.8421436155315486  1.0000
  H   H82       1.0  0.8427329206699229  0.70465822424243  0.8245250785349704  1.0000
  H   H83       1.0  0.2953417750097221  0.13807469622620028  0.15785841187028718  1.0000
  H   H84       1.0  0.8619253043688608  0.1572670790654917  0.49119174520262876  1.0000
  H   H85       1.0  0.7024599974436153  0.7802944182488477  0.023313020172274483  1.0000
  H   H86       1.0  0.21970558073657134  0.92216557831717  0.35664635350461604  1.0000
  H   H87       1.0  0.07783442107019074  0.29754000266082686  0.6899796868369577  1.0000
  H   H88       1.0  0.7802935187776466  0.7024632724562891  0.9766869634469053  1.0000
  H   H89       1.0  0.2975367283669864  0.07783024648991303  0.3100202967822221  1.0000
  H   H90       1.0  0.9221697535081279  0.2197064817964299  0.6433536301145637  1.0000
  H   H91       1.0  0.5823360895955314  0.6488287318799281  0.9719925636365919  1.0000
  H   H92       1.0  0.3511712678753343  0.9335073570435795  0.30532589697190876  1.0000
  H   H93       1.0  0.06649264282611236  0.41766391030333744  0.6386592303042503  1.0000
  H   H94       1.0  0.6488253832906004  0.582341044708034  0.028009891313197113  1.0000
  H   H95       1.0  0.41765895563463656  0.066484339378015  0.3613432246455387  1.0000
  H   H96       1.0  0.9335156606809235  0.351174616656583  0.6946765579778803  1.0000
  H   H97       1.0  0.9106471971125277  0.24297633117814044  0.18547617447491507  1.0000
  H   H98       1.0  0.7570236692472155  0.6676708668890017  0.5188095078072567  1.0000
  H   H99       1.0  0.33232913429301775  0.08935280267548991  0.8521428411395983  1.0000
  H   H100      1.0  0.24297837155783894  0.9106618277323367  0.8145235333068753  1.0000
  H   H101      1.0  0.0893381723862264  0.33231654291158585  0.14785686664219228  1.0000
  H   H102      1.0  0.6676834563529127  0.7570216285829222  0.4811901999745339  1.0000
  H   H103      1.0  0.05243493993186225  0.43915498977984285  0.19781678154319207  1.0000
  H   H104      1.0  0.5608450108273106  0.6132799499911338  0.5311501148755337  1.0000
  H   H105      1.0  0.38672005014206023  0.9475650606643784  0.8644834482078753  1.0000
  H   H106      1.0  0.4391600038327943  0.05243082563607749  0.8021845571271623  1.0000
  H   H107      1.0  0.9475691747736307  0.3867291788530477  0.1355178904624792  1.0000
  H   H108      1.0  0.6132708220463359  0.5608399962535069  0.4688512237948208  1.0000
  C   C1        1.0  0.7142683812758304  0.5203010775022288  0.2757573976966679  1.0000
  C   C2        1.0  0.47969892207868225  0.19396730427699813  0.6090907310290095  1.0000
  C   C3        1.0  0.8060326956473927  0.28573161775489514  0.9424240643613511  1.0000
  C   C4        1.0  0.5202990853438338  0.7142623552458585  0.7242438263287716  1.0000
  C   C5        1.0  0.2857376439117743  0.8060367298267627  0.057577159664088474  1.0000
  C   C6        1.0  0.1939632699947694  0.4797009141542238  0.3909104929964301  1.0000
  C   C7        1.0  0.6047857597234324  0.6934853131116484  0.30458995290449276  1.0000
  C   C8        1.0  0.30651468718045194  0.9113004467903049  0.6379232862368343  1.0000
  C   C9        1.0  0.08869955295074823  0.39521424053340176  0.971256619569176  1.0000
  C   C10       1.0  0.6934857712891696  0.6047809424340302  0.6954099548594049  1.0000
  C   C11       1.0  0.3952190574453162  0.0887048284824598  0.028743288194721793  1.0000
  C   C12       1.0  0.9112951719182754  0.3065142298261421  0.3620766215270634  1.0000
  C   C13       1.0  0.6095979043393098  0.4679228412435356  0.2211168800267681  1.0000
  C   C14       1.0  0.5320771588056011  0.1416750631154661  0.5544502133591097  1.0000
  C   C15       1.0  0.8583249375078499  0.3904020963836304  0.8877835466914512  1.0000
  C   C16       1.0  0.46792237265269265  0.6095921388638746  0.7788833975316295  1.0000
  C   C17       1.0  0.39040786049651105  0.8583302338098849  0.1122167308669464  1.0000
  C   C18       1.0  0.14166976610117382  0.5320776265530852  0.44555006419928794  1.0000
  C   C19       1.0  0.8436604711305438  0.8024140812728322  0.2417059646046244  1.0000
  C   C20       1.0  0.19758591822264382  0.04124639015369266  0.5750392979369661  1.0000
  C   C21       1.0  0.9587536096487177  0.1563395281075971  0.9083726312693076  1.0000
  C   C22       1.0  0.8024153851428839  0.8436542634184696  0.7582949439318012  1.0000
  C   C23       1.0  0.15634573712838187  0.9587611222299446  0.09162827726711799  1.0000
  C   C24       1.0  0.041238878629967286  0.19758461478694073  0.4249616105994596  1.0000
  C   C25       1.0  0.4943278030925107  0.6370410346235282  0.25134495606422835  1.0000
  C   C26       1.0  0.36295896544020867  0.8572867686529024  0.58467828939657  1.0000
  C   C27       1.0  0.14271323071765807  0.505672195950414  0.9180116227289116  1.0000
  C   C28       1.0  0.6370433425595786  0.49432411455814035  0.7486549086000772  1.0000
  C   C29       1.0  0.5056758852691046  0.14271922802439332  0.08198824193539409  1.0000
  C   C30       1.0  0.8572807717774772  0.3629566581600984  0.41532157526773567  1.0000
  C   C31       1.0  0.7327873862070899  0.749363822708148  0.1885702928966165  1.0000
  C   C32       1.0  0.2506361762829633  0.9834235632442684  0.521903626228958  1.0000
  C   C33       1.0  0.01657643676032417  0.26721261327442825  0.8552369595612997  1.0000
  C   C34       1.0  0.7493615475420057  0.7327805599479471  0.8114303617832118  1.0000
  C   C35       1.0  0.26721944017680854  0.01658098700617077  0.14476369511852863  1.0000
  C   C36       1.0  0.9834190123296916  0.25063845258000406  0.4780970284508702  1.0000
  N   N1        1.0  0.7554521281903737  0.6895228389264548  0.290404158342598  1.0000
  N   N2        1.0  0.31047716098411804  0.06592928882018588  0.6237374916749395  1.0000
  N   N3        1.0  0.9340707108740142  0.24454787178748127  0.9570708250072812  1.0000
  N   N4        1.0  0.689521881425141  0.7554465361414808  0.7095969247471754  1.0000
  N   N5        1.0  0.24455346401069553  0.9340753460090265  0.04293025808249231  1.0000
  N   N6        1.0  0.06592465441879608  0.3104781182848476  0.3762635914148339  1.0000
  N   N7        1.0  0.577584921781186  0.6007670559294335  0.20396256571940205  1.0000
  N   N8        1.0  0.39923294444730145  0.9768178657658795  0.5372958990517437  1.0000
  N   N9        1.0  0.02318213362614515  0.4224150787400421  0.8706292323840853  1.0000
  N   N10       1.0  0.6007677228275172  0.5775805768269862  0.7960373118747812  1.0000
  N   N11       1.0  0.42241942274509725  0.023187145997014463  0.12937064521009803  1.0000
  N   N12       1.0  0.9768128534292909  0.3992322767101213  0.46270397854243955  1.0000
  N   N13       1.0  0.6764384388835634  0.6764396767412937  1.6895040091351898e-07  1.0000
  N   N14       1.0  0.3235603224809693  0.999998761575128  0.3333335022827425  1.0000
  N   N15       1.0  1.2378858449053524e-06  0.3235615609104231  0.666666835615084  1.0000
  N   N16       1.0  0.9999998026656768  0.3481315746520054  0.16666785858538946  1.0000
  N   N17       1.0  0.6518684260272126  0.6518682280535991  0.5000011919177311  1.0000
  N   N18       1.0  0.34813177195987155  1.9803702766532424e-07  0.8333345252500727  1.0000
  Br  Br1       1.0  0.35193102089887607  0.44285042046976925  0.09516375059647111  1.0000
  Br  Br2       1.0  0.5571495789396609  0.9090806007599092  0.42849708392881264  1.0000
  Br  Br3       1.0  0.09091939941184056  0.6480689779971663  0.7618304172611543  1.0000
  Br  Br4       1.0  0.44282465489142686  0.35190083845440767  0.9048246663851849  1.0000
  Br  Br5       1.0  0.6480991616639197  0.09092381624116062  0.23815799972050172  1.0000
  Br  Br6       1.0  0.9090761840974144  0.5571753460470638  0.5714913330528433  1.0000
  Br  Br7       1.0  0.030049249952049016  0.8230876486790621  0.9302420495690255  1.0000
  Br  Br8       1.0  0.17691235003761077  0.20696160004718572  0.2635753829043423  1.0000
  Br  Br9       1.0  0.7930383992607177  0.9699507505005969  0.5969087162366838  1.0000
  Br  Br10      1.0  0.8230621126665403  0.03006726688702387  0.06977196900131591  1.0000
  Br  Br11      1.0  0.9699327328651252  0.792994845168156  0.4031053023336575  1.0000
  Br  Br12      1.0  0.20700515451684046  0.17693788747894204  0.736438635665999  1.0000
  Br  Br13      1.0  0.8547143002203501  0.5226399156856052  0.08151312366930674  1.0000
  Br  Br14      1.0  0.47736008438924515  0.33207438387814053  0.41484645700164835  1.0000
  Br  Br15      1.0  0.6679256164855111  0.14528569997037621  0.74817979033399  1.0000
  Br  Br16      1.0  0.5225640271835597  0.8546312692394316  0.9185011707384239  1.0000
  Br  Br17      1.0  0.14536873057817068  0.6679327573703739  0.2518345040737407  1.0000
  Br  Br18      1.0  0.3320672425352477  0.47743597261703935  0.5851678374060822  1.0000
