data_image0
_chemical_formula_structural       C24NBr3
_chemical_formula_sum              "C24 N1 Br3"
_cell_length_a       9.022063584106697
_cell_length_b       9.022063584106698
_cell_length_c       9.022063584106698
_cell_angle_alpha    90.0
_cell_angle_beta     90.0
_cell_angle_gamma    90.0

_space_group_name_H-M_alt    "P 1"
_space_group_IT_number       1

loop_
  _space_group_symop_operation_xyz
  'x, y, z'

loop_
  _atom_site_type_symbol
  _atom_site_label
  _atom_site_symmetry_multiplicity
  _atom_site_fract_x
  _atom_site_fract_y
  _atom_site_fract_z
  _atom_site_occupancy
  C   C1        1.0  0.016836739021391003  0.4296308914102815  0.6720071781227981  1.0000
  C   C2        1.0  0.9831632616318192  0.5703691081345346  0.6720071781227981  1.0000
  C   C3        1.0  0.9831632616318192  0.4296308914102815  0.327992821422018  1.0000
  C   C4        1.0  0.016836739021391003  0.5703691081345346  0.327992821422018  1.0000
  C   C5        1.0  0.6720071781227983  0.016836739021391  0.4296308914102815  1.0000
  C   C6        1.0  0.6720071781227983  0.983163261631819  0.5703691081345346  1.0000
  C   C7        1.0  0.3279928214220181  0.983163261631819  0.4296308914102815  1.0000
  C   C8        1.0  0.3279928214220181  0.016836739021391  0.5703691081345346  1.0000
  C   C9        1.0  0.4296308914102816  0.6720071781227981  0.016836739021391  1.0000
  C   C10       1.0  0.5703691081345347  0.6720071781227981  0.983163261631819  1.0000
  C   C11       1.0  0.4296308914102816  0.327992821422018  0.983163261631819  1.0000
  C   C12       1.0  0.5703691081345347  0.327992821422018  0.016836739021391  1.0000
  C   C13       1.0  0.4296308914102816  0.016836739021391  0.327992821422018  1.0000
  C   C14       1.0  0.5703691081345347  0.983163261631819  0.327992821422018  1.0000
  C   C15       1.0  0.4296308914102816  0.983163261631819  0.6720071781227981  1.0000
  C   C16       1.0  0.5703691081345347  0.016836739021391  0.6720071781227981  1.0000
  C   C17       1.0  0.016836739021391003  0.6720071781227981  0.5703691081345346  1.0000
  C   C18       1.0  0.9831632616318192  0.6720071781227981  0.4296308914102815  1.0000
  C   C19       1.0  0.9831632616318192  0.327992821422018  0.5703691081345346  1.0000
  C   C20       1.0  0.016836739021391003  0.327992821422018  0.4296308914102815  1.0000
  C   C21       1.0  0.6720071781227983  0.4296308914102815  0.983163261631819  1.0000
  C   C22       1.0  0.6720071781227983  0.5703691081345346  0.016836739021391  1.0000
  C   C23       1.0  0.3279928214220181  0.4296308914102815  0.016836739021391  1.0000
  C   C24       1.0  0.3279928214220181  0.5703691081345346  0.983163261631819  1.0000
  N   N1        1.0  0.0  0.0  0.0  1.0000
  Br  Br1       1.0  0.4999999997724081  0.0  0.0  1.0000
  Br  Br2       1.0  0.0  0.499999999772408  0.0  1.0000
  Br  Br3       1.0  0.0  0.0  0.499999999772408  1.0000
