data_image0
_chemical_formula_structural       H40C14N6Br6
_chemical_formula_sum              "H40 C14 N6 Br6"
_cell_length_a       6.453160656831601
_cell_length_b       10.218058143720334
_cell_length_c       9.50000940667765
_cell_angle_alpha    90.0
_cell_angle_beta     90.08968073563197
_cell_angle_gamma    90.0

_space_group_name_H-M_alt    "P 1"
_space_group_IT_number       1

loop_
  _space_group_symop_operation_xyz
  'x, y, z'

loop_
  _atom_site_type_symbol
  _atom_site_label
  _atom_site_symmetry_multiplicity
  _atom_site_fract_x
  _atom_site_fract_y
  _atom_site_fract_z
  _atom_site_occupancy
  H   H1        1.0  0.6199518975683986  0.27662338090502087  0.19247522389940133  1.0000
  H   H2        1.0  0.3800481028499708  0.7766233807229739  0.8075247765270507  1.0000
  H   H3        1.0  0.3545435381179686  0.28912650803573847  0.1953137674776535  1.0000
  H   H4        1.0  0.6454564607467597  0.7891265078536914  0.8046862318972478  1.0000
  H   H5        1.0  0.48278332424803283  0.21411025649179152  0.32800015416799894  1.0000
  H   H6        1.0  0.5172166746207116  0.714110257288404  0.6719998462595336  1.0000
  H   H7        1.0  0.5015393494652769  0.3786824135834458  0.30734341213824745  1.0000
  H   H8        1.0  0.49846064939945134  0.8786824134013987  0.6926565872366538  1.0000
  H   H9        1.0  0.2884737557890628  0.6386175580739188  0.33583591949254576  1.0000
  H   H10       1.0  0.7115262446293067  0.1386175582559659  0.6641640809339063  1.0000
  H   H11       1.0  0.234226654185688  0.010790084422034546  0.04881114982857156  1.0000
  H   H12       1.0  0.7657733462326815  0.5107900842399875  0.9511888505978804  1.0000
  H   H13       1.0  0.03294140908780966  0.9095713157310427  0.01294491571306998  1.0000
  H   H14       1.0  0.9670585913305597  0.4095713159130897  0.987055084713382  1.0000
  H   H15       1.0  0.9878253456341577  0.06071133392221368  0.08379621871454114  1.0000
  H   H16       1.0  0.012174654784211673  0.5607113337401667  0.916203781711911  1.0000
  H   H17       1.0  0.7745101532583338  0.9580502853192547  0.2720694869527287  1.0000
  H   H18       1.0  0.22548984561041066  0.4580502855013017  0.7279305134748039  1.0000
  H   H19       1.0  0.93873421125185  0.565516315206256  0.28816077974973825  1.0000
  H   H20       1.0  0.06126578761287814  0.06551631538830308  0.7118392196251632  1.0000
  H   H21       1.0  0.07168461828596963  0.6181935071373663  0.1336549800701665  1.0000
  H   H22       1.0  0.9283153821323997  0.1181935073194133  0.8663450203562856  1.0000
  H   H23       1.0  0.1530451233983787  0.016275793077396662  0.29471322867836813  1.0000
  H   H24       1.0  0.8469548770159744  0.5162757928953496  0.7052867706954526  1.0000
  H   H25       1.0  0.03933881308818805  0.6596634727648781  0.5137340335605485  1.0000
  H   H26       1.0  0.9606611873301812  0.15966347294692515  0.48626596686590345  1.0000
  H   H27       1.0  0.22728042286450445  0.7873164633481836  0.517956077100922  1.0000
  H   H28       1.0  0.77271957600424  0.2873164635302307  0.48204392332661067  1.0000
  H   H29       1.0  0.9620140963851284  0.939466272845544  0.5025897105790665  1.0000
  H   H30       1.0  0.0379859040292248  0.43946627204893146  0.49741028879475413  1.0000
  H   H31       1.0  0.7753092559476715  0.8134223169505078  0.4847997240980395  1.0000
  H   H32       1.0  0.22469074447069787  0.3134223171325549  0.5152002763284125  1.0000
  H   H33       1.0  0.3196450881116169  0.7861815069957256  0.14054429838418267  1.0000
  H   H34       1.0  0.6803549123067524  0.28618150717777274  0.8594557020422695  1.0000
  H   H35       1.0  0.3990937662408798  0.8548463648514419  0.30566890656106777  1.0000
  H   H36       1.0  0.6009062326278647  0.35484636503348893  0.6943310938664647  1.0000
  H   H37       1.0  0.8073497547504938  0.7751296282129256  0.0960489703250498  1.0000
  H   H38       1.0  0.1926502456678757  0.2751296283949727  0.9039510301014023  1.0000
  H   H39       1.0  0.6836728167338828  0.7204683381572163  0.2502362266978056  1.0000
  H   H40       1.0  0.31632718368047036  0.22046833833926335  0.7497637726760151  1.0000
  C   C1        1.0  0.89346350545744  0.8821584936409527  0.28656730905670874  1.0000
  C   C2        1.0  0.10653649496092922  0.38215849382299977  0.7134326913697433  1.0000
  C   C3        1.0  0.9981501574161743  0.6510957920207827  0.2313471645819936  1.0000
  C   C4        1.0  0.0018498429981788978  0.15109579122417024  0.7686528347918271  1.0000
  C   C5        1.0  0.10252366625654863  0.9316500303778806  0.2319327954155813  1.0000
  C   C6        1.0  0.8974763341618207  0.4316500305599276  0.7680672050108708  1.0000
  C   C7        1.0  0.09335518719577564  0.7485150546633388  0.4608585390977242  1.0000
  C   C8        1.0  0.9066448132225937  0.2485150548453858  0.5391414613287279  1.0000
  C   C9        1.0  0.9216744223771005  0.8510357298509033  0.4430807169978496  1.0000
  C   C10       1.0  0.07832557804126886  0.35103573003295024  0.5569192834286024  1.0000
  C   C11       1.0  0.26581066167722356  0.822154081709043  0.24326230718044656  1.0000
  C   C12       1.0  0.7341893387371295  0.32215408091243053  0.7567376921933742  1.0000
  C   C13       1.0  0.8312647462967274  0.7566264373579985  0.20869776987994704  1.0000
  C   C14       1.0  0.16873525412164184  0.25662643754004555  0.791302230546505  1.0000
  N   N1        1.0  0.4897560903395813  0.28963776271118874  0.25488825371551793  1.0000
  N   N2        1.0  0.5102439100747718  0.7896377625291416  0.7451117456583028  1.0000
  N   N3        1.0  0.1710917737852723  0.7077772731646281  0.3182200479889227  1.0000
  N   N4        1.0  0.828908226633097  0.20777727236801563  0.6817799524375293  1.0000
  N   N5        1.0  0.0862107095239673  0.980050104349268  0.08470104050853076  1.0000
  N   N6        1.0  0.9137892908944021  0.48005010453131497  0.9152989599179212  1.0000
  Br  Br1       1.0  0.990388754811021  0.2800651268322167  0.17822886966608775  1.0000
  Br  Br2       1.0  0.00961124560333219  0.7800651276288292  0.8217711297077329  1.0000
  Br  Br3       1.0  0.5582315947852035  0.04599018261496222  0.9941858648003681  1.0000
  Br  Br4       1.0  0.44176840562914965  0.5459901824329152  0.005814134573452722  1.0000
  Br  Br5       1.0  0.4524765870586228  0.052010815805213495  0.5206123418472638  1.0000
  Br  Br6       1.0  0.5475234118061054  0.5520108156231665  0.4793876575276375  1.0000
