data_image0
_chemical_formula_structural       H40C14N6Br6
_chemical_formula_sum              "H40 C14 N6 Br6"
_cell_length_a       6.44752111288774
_cell_length_b       10.211233895492038
_cell_length_c       9.501344796553383
_cell_angle_alpha    90.0
_cell_angle_beta     90.11960126602828
_cell_angle_gamma    90.0

_space_group_name_H-M_alt    "P 1"
_space_group_IT_number       1

loop_
  _space_group_symop_operation_xyz
  'x, y, z'

loop_
  _atom_site_type_symbol
  _atom_site_label
  _atom_site_symmetry_multiplicity
  _atom_site_fract_x
  _atom_site_fract_y
  _atom_site_fract_z
  _atom_site_occupancy
  H   H1        1.0  0.3793762973799308  0.7234357968493133  0.8067019897235559  1.0000
  H   H2        1.0  0.620623703528945  0.22343579662857785  0.19329801017460888  1.0000
  H   H3        1.0  0.6448985778524404  0.7095297829969924  0.803702241982231  1.0000
  H   H4        1.0  0.35510142305643544  0.20952978277625708  0.19629775791593373  1.0000
  H   H5        1.0  0.5175008042772106  0.7862143480568224  0.6715459913159606  1.0000
  H   H6        1.0  0.4824991966316653  0.2862143488154006  0.32845400858220414  1.0000
  H   H7        1.0  0.4963739826448047  0.6212917366235984  0.6909134413752787  1.0000
  H   H8        1.0  0.5036260182640712  0.12129173738217656  0.309086558522886  1.0000
  H   H9        1.0  0.7119490114765994  0.3617540257921987  0.6631745118513401  1.0000
  H   H10       1.0  0.28805098788129685  0.861754026012934  0.3368254880478767  1.0000
  H   H11       1.0  0.7653755233569012  0.9899576655924698  0.951049415208715  1.0000
  H   H12       1.0  0.23462447600099492  0.4899576653717344  0.04895058469050196  1.0000
  H   H13       1.0  0.011192913134732045  0.9391740144385254  0.91607830062443  1.0000
  H   H14       1.0  0.9888070877789317  0.43917401519710364  0.0839217003262192  1.0000
  H   H15       1.0  0.9677423328401199  0.09049188173115238  0.9870018035444436  1.0000
  H   H16       1.0  0.032257668068756025  0.5904918819518878  0.012998196353721039  1.0000
  H   H17       1.0  0.2256083057898095  0.041865231408392954  0.7280212312125155  1.0000
  H   H18       1.0  0.7743916951190662  0.5418652306498147  0.27197876868564924  1.0000
  H   H19       1.0  0.9282277701974402  0.38274428438324154  0.8650137488838172  1.0000
  H   H20       1.0  0.07177222916045604  0.882744284603977  0.13498625101539957  1.0000
  H   H21       1.0  0.061718408293541124  0.43493914990632904  0.7108737140284712  1.0000
  H   H22       1.0  0.9382815926153347  0.9349391501270644  0.2891262858696935  1.0000
  H   H23       1.0  0.8472354936198618  0.9839296066301563  0.7053090416713229  1.0000
  H   H24       1.0  0.15276450573803427  0.4839296064094209  0.2946909582278939  1.0000
  H   H25       1.0  0.7730517171858523  0.2130049622073801  0.48158319399926  1.0000
  H   H26       1.0  0.22694828372302359  0.7130049624281155  0.5184168058989049  1.0000
  H   H27       1.0  0.9615805383957341  0.34027610037744327  0.4855580752213263  1.0000
  H   H28       1.0  0.0384194625131417  0.8402761005981787  0.5144419246768384  1.0000
  H   H29       1.0  0.22561561930459195  0.1856558824724336  0.5143621509771731  1.0000
  H   H30       1.0  0.7743843800533042  0.685655882693169  0.48563784892204376  1.0000
  H   H31       1.0  0.038408306811697025  0.06004046878905204  0.4975136205316661  1.0000
  H   H32       1.0  0.9615916940971787  0.5600404690097874  0.5024863793664986  1.0000
  H   H33       1.0  0.6009987459261021  0.14547336935018093  0.6939591168830701  1.0000
  H   H34       1.0  0.399001253431794  0.6454733685916028  0.30604088301614674  1.0000
  H   H35       1.0  0.6809480064082046  0.21465904438519173  0.8585819768394719  1.0000
  H   H36       1.0  0.3190519929496916  0.7146590446059271  0.14141802305974485  1.0000
  H   H37       1.0  0.3172080552364797  0.2798415087976307  0.7490406414514933  1.0000
  H   H38       1.0  0.682791945672396  0.7798415090183661  0.25095935844667155  1.0000
  H   H39       1.0  0.19386510950545296  0.2257816766902005  0.9034290986657286  1.0000
  H   H40       1.0  0.8061348914034229  0.725781676910936  0.096570901232436  1.0000
  C   C1        1.0  0.10677005264216265  0.11793790763442012  0.7133922988372366  1.0000
  C   C2        1.0  0.8932299467157335  0.6179379068758419  0.2866077010619802  1.0000
  C   C3        1.0  0.002276764419556681  0.3494248752420796  0.7677152549898237  1.0000
  C   C4        1.0  0.9977232364893193  0.8494248744835016  0.23228474490834097  1.0000
  C   C5        1.0  0.8975948676970501  0.06863032980856337  0.7680725382292141  1.0000
  C   C6        1.0  0.10240513321182562  0.5686303290499852  0.23192746166895076  1.0000
  C   C7        1.0  0.9072785992041259  0.2515416654136127  0.5385418706492215  1.0000
  C   C8        1.0  0.09272140015377019  0.7515416656343482  0.46145812924999535  1.0000
  C   C9        1.0  0.0788784753793264  0.14869921358576757  0.5565875424987357  1.0000
  C   C10       1.0  0.9211215255295495  0.6486992128271895  0.4434124573994291  1.0000
  C   C11       1.0  0.7346184119701861  0.17812705483154098  0.7561925323656155  1.0000
  C   C12       1.0  0.2653815873877101  0.6781270550522763  0.24380746753360136  1.0000
  C   C13       1.0  0.1694903435310366  0.24388623603063583  0.7906882067345564  1.0000
  C   C14       1.0  0.8305096558268595  0.7438862362513712  0.20931179316466045  1.0000
  N   N1        1.0  0.5095313495644621  0.7100671039570404  0.7441063355176896  1.0000
  N   N2        1.0  0.490468649798222  0.21006710373630505  0.2558936654340116  1.0000
  N   N3        1.0  0.8292479143789618  0.29246930004398786  0.6809438516161408  1.0000
  N   N4        1.0  0.17075208652991386  0.7924693002647234  0.31905614828202394  1.0000
  N   N5        1.0  0.9135580715349849  0.020211897221462573  0.9153215458531665  1.0000
  N   N6        1.0  0.0864419278229113  0.520211897442198  0.08467845404605037  1.0000
  Br  Br1       1.0  0.00910245623023626  0.71981786189864  0.8213960758761623  1.0000
  Br  Br2       1.0  0.9908975431324478  0.2198178616779046  0.17860392507553888  1.0000
  Br  Br3       1.0  0.44098868755297704  0.9542212508031565  0.006033960240186937  1.0000
  Br  Br4       1.0  0.5590113133606868  0.454221250582421  0.993966040710462  1.0000
  Br  Br5       1.0  0.5490731039578519  0.9482547681406747  0.480237317010853  1.0000
  Br  Br6       1.0  0.45092689695102395  0.4482547679199392  0.5197626828873118  1.0000
