data_image0
_chemical_formula_structural       H20C6N3OBr3
_chemical_formula_sum              "H20 C6 N3 O1 Br3"
_cell_length_a       7.031927554930007
_cell_length_b       7.031927554929605
_cell_length_c       7.031927554929699
_cell_angle_alpha    85.54000594961408
_cell_angle_beta     85.54000594961435
_cell_angle_gamma    85.54000594961435

_space_group_name_H-M_alt    "P 1"
_space_group_IT_number       1

loop_
  _space_group_symop_operation_xyz
  'x, y, z'

loop_
  _atom_site_type_symbol
  _atom_site_label
  _atom_site_symmetry_multiplicity
  _atom_site_fract_x
  _atom_site_fract_y
  _atom_site_fract_z
  _atom_site_occupancy
  H   H1        1.0  0.026570686987781103  0.0009086604843556731  0.18878471815540337  1.0000
  H   H2        1.0  0.1887847174020424  0.02657068823585072  0.0009086607923483823  1.0000
  H   H3        1.0  0.0009086602730499135  0.18878471771348546  0.02657068831097165  1.0000
  H   H4        1.0  0.9643550749612589  0.9643550749712763  0.9643550747097479  1.0000
  H   H5        1.0  0.31999703275693336  0.3199970330960274  0.3199970333788814  1.0000
  H   H6        1.0  0.3335160207576965  0.6435130637718209  0.2159686613815665  1.0000
  H   H7        1.0  0.21596866089052666  0.33351602041614237  0.6435130634647734  1.0000
  H   H8        1.0  0.6435130636658172  0.2159686608723488  0.33351602100820354  1.0000
  H   H9        1.0  0.5599568313716133  0.5163288271669088  0.16018824162890102  1.0000
  H   H10       1.0  0.1601882411224969  0.5599568304815629  0.5163288279238045  1.0000
  H   H11       1.0  0.5163288276841479  0.1601882422154334  0.559956830346604  1.0000
  H   H12       1.0  0.698568132798414  0.7343108674407675  0.3366041177937923  1.0000
  H   H13       1.0  0.3366041176442869  0.6985681330593935  0.7343108673942192  1.0000
  H   H14       1.0  0.7343108678421648  0.3366041183268161  0.698568132614452  1.0000
  H   H15       1.0  0.4700454771608949  0.827007517791557  0.43143419151873835  1.0000
  H   H16       1.0  0.43143419177375136  0.47004547666535235  0.8270075173189388  1.0000
  H   H17       1.0  0.8270075182513993  0.43143419053018267  0.47004547759374576  1.0000
  H   H18       1.0  0.8640709354486561  0.689695964881525  0.8873514388979352  1.0000
  H   H19       1.0  0.8873514376355188  0.8640709348021405  0.6896959647832652  1.0000
  H   H20       1.0  0.6896959636331821  0.8873514384474424  0.8640709351157416  1.0000
  C   C1        1.0  0.46180241019978235  0.5711989262112319  0.27569439475275814  1.0000
  C   C2        1.0  0.27569439472731505  0.4618024101366789  0.5711989262770549  1.0000
  C   C3        1.0  0.5711989273374692  0.2756943941488832  0.4618024096844663  1.0000
  C   C4        1.0  0.5602615084676682  0.6955768082226487  0.4060377977058353  1.0000
  C   C5        1.0  0.4060377972089767  0.5602615086023383  0.6955768087788702  1.0000
  C   C6        1.0  0.6955768085682578  0.40603779736973805  0.5602615086766323  1.0000
  N   N1        1.0  0.043018017824893943  0.043018017695389904  0.043018018809076554  1.0000
  N   N2        1.0  0.39874361281957965  0.39874361323259844  0.3987436140980572  1.0000
  N   N3        1.0  0.5915001331026897  0.5915001340703918  0.5915001343445065  1.0000
  O   O1        1.0  0.8238072659038087  0.823807264641121  0.8238072648845022  1.0000
  Br  Br1       1.0  0.06845533614856801  0.9907328461323718  0.49959448041621973  1.0000
  Br  Br2       1.0  0.49959448017876407  0.06845533725977829  0.9907328448684217  1.0000
  Br  Br3       1.0  0.9907328455443327  0.4995944799216706  0.06845533606086236  1.0000
