data_image0
_chemical_formula_structural       H40C26N2O4I8
_chemical_formula_sum              "H40 C26 N2 O4 I8"
_cell_length_a       8.608902268528082
_cell_length_b       9.31302416509074
_cell_length_c       12.87892715535894
_cell_angle_alpha    75.2979519062943
_cell_angle_beta     77.82934856660599
_cell_angle_gamma    79.25980921743631

_space_group_name_H-M_alt    "P 1"
_space_group_IT_number       1

loop_
  _space_group_symop_operation_xyz
  'x, y, z'

loop_
  _atom_site_type_symbol
  _atom_site_label
  _atom_site_symmetry_multiplicity
  _atom_site_fract_x
  _atom_site_fract_y
  _atom_site_fract_z
  _atom_site_occupancy
  H   H1        1.0  0.8676099473319782  0.4651697301142508  0.5042462748936828  1.0000
  H   H2        1.0  0.132390051967977  0.5348302700535706  0.4957537254076942  1.0000
  H   H3        1.0  0.7133100351376845  0.3476264168956809  0.5400908632212751  1.0000
  H   H4        1.0  0.28668996438014965  0.6523735821793427  0.4599091370797453  1.0000
  H   H5        1.0  0.831032911680526  0.40987927509951655  0.3398858723314988  1.0000
  H   H6        1.0  0.16896708897997592  0.5901207253189079  0.6601141271482629  1.0000
  H   H7        1.0  0.019525903722207947  0.30813768194124797  0.37179883138176034  1.0000
  H   H8        1.0  0.9804740969382939  0.6918623184771764  0.6282011680980014  1.0000
  H   H9        1.0  0.7229559867480392  0.27136595893625004  0.26343565413610925  1.0000
  H   H10       1.0  0.27704401391246264  0.7286340414821744  0.7365643453436524  1.0000
  H   H11       1.0  0.7349758016283234  0.07458186174905271  0.31557262103829037  1.0000
  H   H12       1.0  0.26502419808632227  0.9254181375768866  0.6844273784478573  1.0000
  H   H13       1.0  0.9315990156187217  0.14333926272278005  0.13878503318992758  1.0000
  H   H14       1.0  0.06840098368123315  0.8566607374450415  0.8612149671114494  1.0000
  H   H15       1.0  0.01881733885048037  0.24908828068022248  0.20252991337165485  1.0000
  H   H16       1.0  0.9811826618100213  0.750911719738202  0.797470086108107  1.0000
  H   H17       1.0  0.0646827478031287  0.8764952194669461  0.15300185272227287  1.0000
  H   H18       1.0  0.9353172528784409  0.12350477960776444  0.8469981475720052  1.0000
  H   H19       1.0  0.8945126433874053  0.8806286864334116  0.25976389177118275  1.0000
  H   H20       1.0  0.10548735729416411  0.11937131264129909  0.7402361085230953  1.0000
  H   H21       1.0  0.7638402813612138  0.28076100263335696  0.7166544000119659  1.0000
  H   H22       1.0  0.23615971793874113  0.7192389975344644  0.2833456002894111  1.0000
  H   H23       1.0  0.9422223446793941  0.36146494420130343  0.6984074184666949  1.0000
  H   H24       1.0  0.05777765578429597  0.6385350559662053  0.3015925818279397  1.0000
  H   H25       1.0  0.25316618939960606  0.07882650893217942  0.13214242773331752  1.0000
  H   H26       1.0  0.746833809900349  0.9211734912356422  0.8678575725680595  1.0000
  H   H27       1.0  0.3100891513375955  0.9235948534976849  0.2360876974849888  1.0000
  H   H28       1.0  0.6899108493229064  0.07640514692073955  0.7639123019947729  1.0000
  H   H29       1.0  0.28620257879823185  0.9708286133678926  0.4310464514805086  1.0000
  H   H30       1.0  0.7137974216654585  0.029171386799616162  0.5689535488141261  1.0000
  H   H31       1.0  0.37514335981260827  0.1342042143518211  0.5255521092788898  1.0000
  H   H32       1.0  0.624856641065773  0.8657957849738053  0.47444789020051537  1.0000
  H   H33       1.0  0.43425871704005814  0.38893705119927585  0.42643837816172964  1.0000
  H   H34       1.0  0.565741282259897  0.6110629489685456  0.5735616221396473  1.0000
  H   H35       1.0  0.399397648481369  0.4836736934106764  0.23273937319910473  1.0000
  H   H36       1.0  0.6006023519823211  0.5163263067568323  0.7672606270955299  1.0000
  H   H37       1.0  0.3061341332165336  0.3225673540013938  0.13774771274894324  1.0000
  H   H38       1.0  0.6938658672471567  0.6774326461661149  0.8622522875456913  1.0000
  H   H39       1.0  0.04467114777785134  0.0007794430750717184  0.3451481939859496  1.0000
  H   H40       1.0  0.9553288528826503  0.9992205573433528  0.6548518054938122  1.0000
  C   C1        1.0  0.8430459954784306  0.3508534491990648  0.5093472130112915  1.0000
  C   C2        1.0  0.1569540049852598  0.6491465509684439  0.4906527872833431  1.0000
  C   C3        1.0  0.8881754373195216  0.31680079333844513  0.39787225399783127  1.0000
  C   C4        1.0  0.11182456239512412  0.6831992059874941  0.6021277454883163  1.0000
  C   C5        1.0  0.8009157926329751  0.170484254498252  0.29858996901713303  1.0000
  C   C6        1.0  0.19908420783071534  0.8295157456692568  0.7014100312775015  1.0000
  C   C7        1.0  0.9548639036432408  0.1525221126148444  0.21721708107560184  1.0000
  C   C8        1.0  0.04513609701726064  0.8474778878035801  0.78278291840416  1.0000
  C   C9        1.0  0.02543600589279255  0.8755565178829635  0.2398738449941696  1.0000
  C   C10       1.0  0.9745639936039737  0.12444348253577367  0.7601261544923346  1.0000
  C   C11       1.0  0.8952366235191959  0.2630139833880529  0.6902576611232698  1.0000
  C   C12       1.0  0.10476337578075925  0.7369860167797686  0.30974233917810723  1.0000
  C   C13       1.0  0.23967938184727233  0.03539048955692428  0.22064343589591082  1.0000
  C   C14       1.0  0.7603206186164181  0.9646095106105844  0.7793565643987237  1.0000
  C   C15       1.0  0.2901018762775309  0.13636002662887176  0.27774304223070956  1.0000
  C   C16       1.0  0.7098981232192356  0.8636399737898655  0.7222569572557945  1.0000
  C   C17       1.0  0.3098811155477745  0.0834420286825308  0.38705371522433324  1.0000
  C   C18       1.0  0.6901188839489919  0.9165579717362065  0.6129462842621709  1.0000
  C   C19       1.0  0.35974510462041903  0.1749130416556588  0.4406521065475161  1.0000
  C   C20       1.0  0.6402548960400826  0.8250869587627657  0.5593478929322457  1.0000
  C   C21       1.0  0.39184804990138894  0.3188941180169039  0.38510954553014703  1.0000
  C   C22       1.0  0.608151949398566  0.6811058821509175  0.6148904547712299  1.0000
  C   C23       1.0  0.37192800914854257  0.37210743007180186  0.27645894180995223  1.0000
  C   C24       1.0  0.6280719917298385  0.6278925692538245  0.7235410576694531  1.0000
  C   C25       1.0  0.31985726091171907  0.28157867834520367  0.2230184430824423  1.0000
  C   C26       1.0  0.680142738388236  0.7184213218226176  0.7769815572189347  1.0000
  N   N1        1.0  0.06492091905392335  0.015060449908699088  0.2610227451642879  1.0000
  N   N2        1.0  0.9350790816065785  0.9849395505097251  0.7389772543154739  1.0000
  O   O1        1.0  0.9344367948788657  0.24217374066153127  0.5814770353280159  1.0000
  O   O2        1.0  0.06556320558482474  0.7578262595059774  0.41852296496661867  1.0000
  O   O3        1.0  0.8330603676672045  0.1789151809140257  0.40100100500941366  1.0000
  O   O4        1.0  0.16693963204744117  0.8210848184119135  0.598998994476734  1.0000
  I   I1        1.0  0.37126966966203145  0.3012130346942674  0.7239402752146918  1.0000
  I   I2        1.0  0.6287303296379235  0.698786965473554  0.27605972508668497  1.0000
  I   I3        1.0  0.34938086382850825  0.008059532688373392  0.8930168119020316  1.0000
  I   I4        1.0  0.6506191358861375  0.9919404666375657  0.10698318758411605  1.0000
  I   I5        1.0  0.3525619732369886  0.7135781272558669  0.0252428685783972  1.0000
  I   I6        1.0  0.6474380260629664  0.2864218729119545  0.9747571317229797  1.0000
  I   I7        1.0  0.11010650807734076  0.4359647789704554  0.921015205777099  1.0000
  I   I8        1.0  0.8898934923863496  0.5640352211970533  0.07898479451753546  1.0000
