data_image0
_chemical_formula_structural       H104C88N8O16S12
_chemical_formula_sum              "H104 C88 N8 O16 S12"
_cell_length_a       8.410061495961271
_cell_length_b       28.370469940427398
_cell_length_c       9.484932342354414
_cell_angle_alpha    90.00017243086103
_cell_angle_beta     98.60936908486839
_cell_angle_gamma    89.99956074276957

_space_group_name_H-M_alt    "P 1"
_space_group_IT_number       1

loop_
  _space_group_symop_operation_xyz
  'x, y, z'

loop_
  _atom_site_type_symbol
  _atom_site_label
  _atom_site_symmetry_multiplicity
  _atom_site_fract_x
  _atom_site_fract_y
  _atom_site_fract_z
  _atom_site_occupancy
  H   H1        1.0  0.34082672812866416  0.07552674740765664  0.02188728875186152  1.0000
  H   H2        1.0  0.1591746258973716  0.5755285873456126  0.4781043154216731  1.0000
  H   H3        1.0  0.6591723517567316  0.9244731235217988  0.9781117649809505  1.0000
  H   H4        1.0  0.8408258132160796  0.4244733409995609  0.5218876389029574  1.0000
  H   H5        1.0  0.3634875271713342  0.8762657011762183  0.3875148666491259  1.0000
  H   H6        1.0  0.13651242977336125  0.376266081663633  0.1124866060223356  1.0000
  H   H7        1.0  0.6365125866007312  0.12373396249455391  0.6124847472348041  1.0000
  H   H8        1.0  0.8634868455210692  0.6237344159752641  0.8875157192742792  1.0000
  H   H9        1.0  0.6493312039167093  0.16644862219191717  0.15045387755550682  1.0000
  H   H10       1.0  0.8506708788937102  0.6664512998945689  0.3495479206019222  1.0000
  H   H11       1.0  0.35066833734034075  0.8335512617790445  0.8495457932426341  1.0000
  H   H12       1.0  0.14933015784856368  0.33355106764353715  0.6504529000435676  1.0000
  H   H13       1.0  0.6732538159337541  0.23971573147547248  0.012366789877784954  1.0000
  H   H14       1.0  0.8267564698127308  0.739719205308327  0.4876304427673056  1.0000
  H   H15       1.0  0.32674573009693836  0.7602841567251704  0.9876327582308978  1.0000
  H   H16       1.0  0.17325390079982833  0.2602832545663701  0.5123665120100618  1.0000
  H   H17       1.0  0.49550580952327683  0.25283387990981615  0.7804638675415898  1.0000
  H   H18       1.0  0.004497660870046515  0.7528350425321733  0.719539979189451  1.0000
  H   H19       1.0  0.5044937596898267  0.7471661542170324  0.21953539386974252  1.0000
  H   H20       1.0  0.995506266136124  0.24716486505170168  0.2804634854943948  1.0000
  H   H21       1.0  0.2922459963449077  0.19169914602040836  0.6888656040609394  1.0000
  H   H22       1.0  0.20774792738557712  0.691697313648296  0.8111420516884893  1.0000
  H   H23       1.0  0.7077534747184524  0.8083007344257974  0.3111339767803692  1.0000
  H   H24       1.0  0.7922460247635508  0.3082998555381596  0.1888645586194558  1.0000
  H   H25       1.0  0.2735403748534514  0.11791192019676854  0.8244334891824813  1.0000
  H   H26       1.0  0.2264572185608295  0.6179118507193234  0.6755651997056459  1.0000
  H   H27       1.0  0.7264591756652977  0.8820879627165681  0.17556583919744084  1.0000
  H   H28       1.0  0.7735391621525284  0.3820876564538382  0.32443201588591014  1.0000
  H   H29       1.0  0.29527931701340904  0.002023236964627093  0.06281866525435575  1.0000
  H   H30       1.0  0.20471748181940944  0.502026969266766  0.43717704512168243  1.0000
  H   H31       1.0  0.7047199842282356  0.9979764792261537  0.9371802834573445  1.0000
  H   H32       1.0  0.7952766663231557  0.49797653995691316  0.5628187730164294  1.0000
  H   H33       1.0  0.3040269228942412  0.9231669696538763  0.2083313590418633  1.0000
  H   H34       1.0  0.19597066931010265  0.42317011128952364  0.2916702084298301  1.0000
  H   H35       1.0  0.6959727453418  0.0768327088213474  0.791667873002955  1.0000
  H   H36       1.0  0.8040237530898352  0.5768334222578015  0.7083312382144592  1.0000
  H   H37       1.0  0.30273691731113256  0.8005243520855342  0.40996757693390534  1.0000
  H   H38       1.0  0.1972644697561677  0.3005247274663882  0.09003076047221681  1.0000
  H   H39       1.0  0.6972628402647677  0.19947548077558447  0.5900318848130434  1.0000
  H   H40       1.0  0.8027348919181997  0.6994759027030868  0.9099686722113643  1.0000
  H   H41       1.0  0.34336953263140657  0.724797866081585  0.5423925097362962  1.0000
  H   H42       1.0  0.15663160798300896  0.22479808282980787  0.95760545039437  1.0000
  H   H43       1.0  0.6566295049645645  0.27520204503075124  0.45760694083413234  1.0000
  H   H44       1.0  0.843368561071651  0.7752028448306555  0.0423930283301279  1.0000
  H   H45       1.0  0.5769999869569751  0.7150959338850364  0.7361663892911696  1.0000
  H   H46       1.0  0.9229997763793674  0.21509654576802933  0.7638329965964405  1.0000
  H   H47       1.0  0.42299897591372376  0.28490400824569045  0.26383332283772215  1.0000
  H   H48       1.0  0.07700064372391026  0.7849044682493096  0.23616503860440313  1.0000
  H   H49       1.0  0.7553009966759046  0.7838380532911194  0.8073212092434744  1.0000
  H   H50       1.0  0.7446973245007379  0.28383920466457363  0.6926798527284364  1.0000
  H   H51       1.0  0.24469795934653513  0.21616174890542603  0.1926785904906071  1.0000
  H   H52       1.0  0.25530305150125643  0.7161619640914152  0.3073186433716183  1.0000
  H   H53       1.0  0.7068370804679772  0.8604351280927717  0.6812108377679759  1.0000
  H   H54       1.0  0.7931622176407656  0.36043628276670026  0.8187906855310725  1.0000
  H   H55       1.0  0.2931621740417682  0.13956471146615856  0.318788849820269  1.0000
  H   H56       1.0  0.2068376238718835  0.6395646572312479  0.1812084305505533  1.0000
  H   H57       1.0  0.11338517478598183  0.14269356201989208  0.10170671848689458  1.0000
  H   H58       1.0  0.38662142594938725  0.6426950389073643  0.3982941433159492  1.0000
  H   H59       1.0  0.8866175123436417  0.8573078989402458  0.8982949204728803  1.0000
  H   H60       1.0  0.613385454488633  0.3573064840833738  0.6017059223563782  1.0000
  H   H61       1.0  0.8998301531157757  0.140371542640303  0.11376773444126309  1.0000
  H   H62       1.0  0.600172899751117  0.6403715796773232  0.38623486771768273  1.0000
  H   H63       1.0  0.10016931445016834  0.85962856233527  0.886232088409614  1.0000
  H   H64       1.0  0.3998300764563338  0.3596289521476794  0.6137674000299709  1.0000
  H   H65       1.0  0.9637463208587081  0.15086068127272267  0.9444758114996852  1.0000
  H   H66       1.0  0.5362543026978074  0.6508651875789245  0.5555211834426861  1.0000
  H   H67       1.0  0.036253132005048004  0.849139614746203  0.055523274418802546  1.0000
  H   H68       1.0  0.4637468122508259  0.3491393589832859  0.4444755699742393  1.0000
  H   H69       1.0  0.033241241978283084  0.011480555775105494  0.18305068328316978  1.0000
  H   H70       1.0  0.46676409175077055  0.5114810248912289  0.31695999081899945  1.0000
  H   H71       1.0  0.966757456807794  0.9885201484146927  0.8169466501887073  1.0000
  H   H72       1.0  0.5332401371324563  0.4885194315069254  0.6830522903468128  1.0000
  H   H73       1.0  0.9217428825458205  0.05952433274139069  0.24162158550913512  1.0000
  H   H74       1.0  0.5782618361346518  0.5595258927148788  0.25838806523880564  1.0000
  H   H75       1.0  0.07825665421596728  0.940475605159136  0.7583785601672506  1.0000
  H   H76       1.0  0.4217431495134584  0.4404758146304427  0.7416231378543924  1.0000
  H   H77       1.0  0.13887211755484735  0.06438094637866032  0.24795290230639114  1.0000
  H   H78       1.0  0.36112693968673404  0.564383533447006  0.2520563330377766  1.0000
  H   H79       1.0  0.8611283270966956  0.9356188202167088  0.7520487748528558  1.0000
  H   H80       1.0  0.6388722384709036  0.435618814006202  0.7479526905964698  1.0000
  H   H81       1.0  0.8371683492301083  0.1345333028285521  0.3928400273632751  1.0000
  H   H82       1.0  0.6628309940344652  0.6345348958590293  0.10716092676282628  1.0000
  H   H83       1.0  0.16283155734556723  0.865465588210008  0.6071632856562859  1.0000
  H   H84       1.0  0.33716660545354327  0.3654661551731436  0.8928394495698646  1.0000
  H   H85       1.0  0.05355478898906635  0.13720086463728703  0.3995919387397065  1.0000
  H   H86       1.0  0.4464478689455131  0.6372021639473298  0.10040521269852715  1.0000
  H   H87       1.0  0.9464478488639957  0.8627990260259881  0.6004054938782806  1.0000
  H   H88       1.0  0.5535535047195614  0.3627979981259954  0.8995914377457027  1.0000
  H   H89       1.0  0.9493563663041243  0.18567475817599152  0.4658446150432063  1.0000
  H   H90       1.0  0.5506455433706107  0.6856754744744794  0.03416004576551469  1.0000
  H   H91       1.0  0.050647074051047604  0.8143253457402868  0.5341606487474447  1.0000
  H   H92       1.0  0.44935569742732234  0.31432479687104947  0.9658433907883024  1.0000
  H   H93       1.0  0.9888685851622333  0.0408453253891654  0.6760160431566317  1.0000
  H   H94       1.0  0.5111315633824887  0.5408470352706531  0.8239800382752162  1.0000
  H   H95       1.0  0.011131020219616213  0.959153407383585  0.3239814340974862  1.0000
  H   H96       1.0  0.4888662276320374  0.45915395548498794  0.1760157510787836  1.0000
  H   H97       1.0  0.06717927617921234  0.053516447900229885  0.5146444813313272  1.0000
  H   H98       1.0  0.43281914063715493  0.5535195924019995  0.9853526787970753  1.0000
  H   H99       1.0  0.9328190915477609  0.94648143927713  0.4853543735838816  1.0000
  H   H100      1.0  0.5671783034015021  0.4464822682738579  0.014645418434735546  1.0000
  H   H101      1.0  0.8506667923857424  0.05440853865819398  0.515539013191811  1.0000
  H   H102      1.0  0.6493353857459269  0.5544093564602811  0.9844597552856856  1.0000
  H   H103      1.0  0.14933528630529969  0.9455914394223051  0.4844617730216259  1.0000
  H   H104      1.0  0.35066426416227875  0.44559117783403496  0.015538740376472699  1.0000
  C   C1        1.0  0.5744053727396488  0.1716939808299621  0.04824504226747132  1.0000
  C   C2        1.0  0.9255999993565868  0.6716962556743609  0.45175431536558946  1.0000
  C   C3        1.0  0.425593986250299  0.8283058418097289  0.9517544206125441  1.0000
  C   C4        1.0  0.07440488259250441  0.32830532441940985  0.5482439259144175  1.0000
  C   C5        1.0  0.5848867423727777  0.21310245301356137  0.9706959672791073  1.0000
  C   C6        1.0  0.9151155937951763  0.7131045727391524  0.529303940213171  1.0000
  C   C7        1.0  0.41511270252606264  0.7868974676152182  0.02930345174840294  1.0000
  C   C8        1.0  0.08488608363506966  0.28689654032394046  0.47069521991739144  1.0000
  C   C9        1.0  0.48509478459540356  0.22070383361748933  0.8413034549128343  1.0000
  C   C10       1.0  0.014907800512595068  0.7207053048357627  0.6586971791043479  1.0000
  C   C11       1.0  0.5149046054240473  0.779296091241077  0.15869591004072947  1.0000
  C   C12       1.0  0.9850940387195891  0.27929518398681574  0.3413025709102841  1.0000
  C   C13       1.0  0.37175808511800984  0.18644531961213046  0.7895821921894935  1.0000
  C   C14       1.0  0.12823990548695263  0.6864457937997547  0.7104216916036639  1.0000
  C   C15       1.0  0.6282415150431031  0.813554688431242  0.21041710729326174  1.0000
  C   C16       1.0  0.8717572157052129  0.31355405034559236  0.28958125677612767  1.0000
  C   C17       1.0  0.3609919527753327  0.14482368550502875  0.8648609610055643  1.0000
  C   C18       1.0  0.13900750949016322  0.6448241599926723  0.6351404591146106  1.0000
  C   C19       1.0  0.639007417293104  0.8551761678003904  0.13513860358785315  1.0000
  C   C20       1.0  0.8609905570032864  0.3551758180921413  0.364859558748449  1.0000
  C   C21       1.0  0.4633977583239807  0.13678739917250718  0.9940602346905724  1.0000
  C   C22       1.0  0.03660624690353371  0.6367890847597942  0.505938572831677  1.0000
  C   C23       1.0  0.5366020041572089  0.8632125422522541  0.005939344775330459  1.0000
  C   C24       1.0  0.9633963973371816  0.3632119609781216  0.4940595829086217  1.0000
  C   C25       1.0  0.5524844371438703  0.0722245970848451  0.1642486086514972  1.0000
  C   C26       1.0  0.9475135053073024  0.5722269330227501  0.3357492313628714  1.0000
  C   C27       1.0  0.4475148367664547  0.9277752280222117  0.8357506831122131  1.0000
  C   C28       1.0  0.052485047835534406  0.4277754503773093  0.664246694215335  1.0000
  C   C29       1.0  0.5093892769396994  0.024600577982240694  0.20742247570386146  1.0000
  C   C30       1.0  0.9906022828380863  0.5246022662415841  0.2925805806138221  1.0000
  C   C31       1.0  0.49060955892333297  0.9753991840314771  0.7925766608975523  1.0000
  C   C32       1.0  0.009390376854686088  0.4753996631735409  0.7074179233004394  1.0000
  C   C33       1.0  0.3856373108544593  0.9940706150977532  0.1543875858126676  1.0000
  C   C34       1.0  0.11435835685208354  0.4940730611718199  0.34561139324018036  1.0000
  C   C35       1.0  0.6143618424682705  0.005929144095716527  0.8456114697660068  1.0000
  C   C36       1.0  0.8856359010394206  0.5059296183169778  0.6543868251758919  1.0000
  C   C37       1.0  0.39037129510055035  0.9516859014494246  0.2324767841570385  1.0000
  C   C38       1.0  0.10962270227980041  0.45168815538916773  0.2675245024530262  1.0000
  C   C39       1.0  0.6096280649098127  0.04831387254801697  0.7675224437478  1.0000
  C   C40       1.0  0.8903704254898561  0.5483145142332807  0.7324770897871102  1.0000
  C   C41       1.0  0.5179825510760677  0.9503103489420321  0.3438065872334638  1.0000
  C   C42       1.0  0.9820095974230165  0.4503115081104525  0.1561969728354997  1.0000
  C   C43       1.0  0.4820163356202269  0.049689407079728215  0.656193030937471  1.0000
  C   C44       1.0  0.0179857046921087  0.5496896902609695  0.8438038958206477  1.0000
  C   C45       1.0  0.571673779993083  0.9141292927477803  0.451824762688668  1.0000
  C   C46       1.0  0.9283213293052603  0.41413028146495945  0.04817797097875616  1.0000
  C   C47       1.0  0.428325667119139  0.08587055139309097  0.5481748042559665  1.0000
  C   C48       1.0  0.07167416492577558  0.585870224637222  0.9518230837754805  1.0000
  C   C49       1.0  0.5033193208316437  0.8351167017510419  0.5362005713310262  1.0000
  C   C50       1.0  0.9966821187025164  0.3351174837430874  0.9638001122358894  1.0000
  C   C51       1.0  0.496680122722447  0.1648831653009772  0.4637989898438796  1.0000
  C   C52       1.0  0.0033179613926754828  0.6648834449760916  0.036200640897881727  1.0000
  C   C53       1.0  0.4006642353014286  0.7965163519064857  0.49832226040154376  1.0000
  C   C54       1.0  0.09933676745150012  0.296517168140759  0.001676466023028558  1.0000
  C   C55       1.0  0.5993350598366602  0.20348345487165306  0.5016770786162088  1.0000
  C   C56       1.0  0.9006624631099156  0.7034840556037365  0.9983228238955352  1.0000
  C   C57       1.0  0.4258447165607224  0.7540475422943436  0.5715676723134194  1.0000
  C   C58       1.0  0.07415600192249018  0.2540481887326618  0.9284307233622483  1.0000
  C   C59       1.0  0.5741543264474511  0.2459523141838121  0.42843196984999893  1.0000
  C   C60       1.0  0.9258442472843238  0.7459530928169645  0.07156806496319018  1.0000
  C   C61       1.0  0.5548204574861837  0.748822430012672  0.6819134204090466  1.0000
  C   C62       1.0  0.9451789749929879  0.2488232498885402  0.8180860131307479  1.0000
  C   C63       1.0  0.44517834924468397  0.25117746841073235  0.3180861222527844  1.0000
  C   C64       1.0  0.05482107713848293  0.7511778674057348  0.18191222359682663  1.0000
  C   C65       1.0  0.6555724876433661  0.7872261810278581  0.7201624767995383  1.0000
  C   C66       1.0  0.8444266792592251  0.2872272752200762  0.7798377090596247  1.0000
  C   C67       1.0  0.3444265581343067  0.2127737628651772  0.2798372543165539  1.0000
  C   C68       1.0  0.15557390888667189  0.7127740546187031  0.2201608915990165  1.0000
  C   C69       1.0  0.6304681477000803  0.83029022848271  0.6496397953728467  1.0000
  C   C70       1.0  0.8695314149685253  0.3302913322749493  0.8503613814560727  1.0000
  C   C71       1.0  0.36953086782837374  0.1697096435045504  0.35035982396541493  1.0000
  C   C72       1.0  0.13046874304486877  0.6697097959469142  0.14963851802820086  1.0000
  C   C73       1.0  0.9932523469297635  0.13305538039046355  0.04756719750408116  1.0000
  C   C74       1.0  0.5067507224722637  0.6330560907468346  0.4524363104698528  1.0000
  C   C75       1.0  0.006750041015815774  0.8669470742088655  0.9524344986829204  1.0000
  C   C76       1.0  0.4932520359546704  0.3669447784018436  0.5475675926476369  1.0000
  C   C77       1.0  0.02637828236165761  0.04987806729665111  0.19109631595078436  1.0000
  C   C78       1.0  0.47362454683169364  0.549878414355878  0.3089080481330967  1.0000
  C   C79       1.0  0.9736217078363762  0.9501226354829966  0.8089035031034084  1.0000
  C   C80       1.0  0.5263769706524793  0.45012208539663745  0.6910969432981616  1.0000
  C   C81       1.0  0.9510734269463128  0.1473207816502707  0.45212085574286665  1.0000
  C   C82       1.0  0.5489291495090177  0.6473221375615533  0.047878067509776266  1.0000
  C   C83       1.0  0.04893047196048554  0.8526787145890112  0.547879853177933  1.0000
  C   C84       1.0  0.4510720037627246  0.35267851058200395  0.9521208758473136  1.0000
  C   C85       1.0  0.9698342058967564  0.060950461767427924  0.5765066624397946  1.0000
  C   C86       1.0  0.5301669043059537  0.5609523205875379  0.9234906349193419  1.0000
  C   C87       1.0  0.03016733749438013  0.9390484426613639  0.4234926676425356  1.0000
  C   C88       1.0  0.46983213268946666  0.43904889540170744  0.07650684184840258  1.0000
  N   N1        1.0  0.4452344598804567  0.09342219104936735  0.06176973669952265  1.0000
  N   N2        1.0  0.054766980308906296  0.5934243351141822  0.4382241156040274  1.0000
  N   N3        1.0  0.5547646479061641  0.9065776982090926  0.9382295497312637  1.0000
  N   N4        1.0  0.9452340335185591  0.40657767535880074  0.5617694574618296  1.0000
  N   N5        1.0  0.4719849899841702  0.8764683729632378  0.45568812003359793  1.0000
  N   N6        1.0  0.028014238046993795  0.3764694990271324  0.044314279334735716  1.0000
  N   N7        1.0  0.5280154665933352  0.12353137565450366  0.5443112793121415  1.0000
  N   N8        1.0  0.9719838066644524  0.6235313073854936  0.9556890566535304  1.0000
  O   O1        1.0  0.6815554260204201  0.09072663572635276  0.22098750416947202  1.0000
  O   O2        1.0  0.8184432910491257  0.590730152742768  0.27901044215155174  1.0000
  O   O3        1.0  0.318443816018045  0.9092732461300517  0.7790121015431689  1.0000
  O   O4        1.0  0.181555506113126  0.4092728598322339  0.7209852729848293  1.0000
  O   O5        1.0  0.7028279604917936  0.9190544565706438  0.5325031486600947  1.0000
  O   O6        1.0  0.7971684468046164  0.4190553143546114  0.9674977435756565  1.0000
  O   O7        1.0  0.2971716558807795  0.08094554301337593  0.4674964736115493  1.0000
  O   O8        1.0  0.20282700756234248  0.5809446513969746  0.0325031980525934  1.0000
  O   O9        1.0  0.1318802502936362  0.05859795542991882  0.9403264216184771  1.0000
  O   O10       1.0  0.3681215914524347  0.558601211200183  0.5596774091944575  1.0000
  O   O11       1.0  0.8681214506905087  0.9414033677116859  0.05967457530775064  1.0000
  O   O12       1.0  0.6318769082965502  0.4414020178017171  0.44032670113414746  1.0000
  O   O13       1.0  0.8431035090692792  0.1332119956015045  0.7009548433509044  1.0000
  O   O14       1.0  0.6569046591946224  0.6332135094443802  0.7990435918896253  1.0000
  O   O15       1.0  0.15690703531545963  0.866786729757627  0.29904513006306815  1.0000
  O   O16       1.0  0.3431021466880689  0.3667879952172601  0.20095595409881067  1.0000
  S   S1        1.0  0.6325921321722381  0.0006033497636251515  0.35033652799956383  1.0000
  S   S2        1.0  0.8673962433026243  0.5006051245119529  0.1496649822272345  1.0000
  S   S3        1.0  0.36740586604879705  0.9993965275121375  0.6496633242627246  1.0000
  S   S4        1.0  0.13259561537278478  0.49939416448140406  0.8503312618438279  1.0000
  S   S5        1.0  0.9858015984562596  0.07079375410054477  0.011003724427598678  1.0000
  S   S6        1.0  0.5142031444076371  0.5707969449982624  0.4890001030162214  1.0000
  S   S7        1.0  0.014194787660390566  0.9292083741080267  0.9889939347549218  1.0000
  S   S8        1.0  0.4858004131819051  0.4292063633055591  0.511004093339841  1.0000
  S   S9        1.0  0.9879861720797094  0.12174060797201858  0.627752299987524  1.0000
  S   S10       1.0  0.5120230759097976  0.6217442235024232  0.8722508439957071  1.0000
  S   S11       1.0  0.012025670622002774  0.8782566027856227  0.3722536298015621  1.0000
  S   S12       1.0  0.48798447693896563  0.37825875663813757  0.12775247567623618  1.0000
