data_image0
_chemical_formula_structural       H104C116N12O12Br4
_chemical_formula_sum              "H104 C116 N12 O12 Br4"
_cell_length_a       11.629525034783052
_cell_length_b       20.938861924952356
_cell_length_c       9.802471178354915
_cell_angle_alpha    90.0
_cell_angle_beta     92.67831744259657
_cell_angle_gamma    90.0

_space_group_name_H-M_alt    "P 1"
_space_group_IT_number       1

loop_
  _space_group_symop_operation_xyz
  'x, y, z'

loop_
  _atom_site_type_symbol
  _atom_site_label
  _atom_site_symmetry_multiplicity
  _atom_site_fract_x
  _atom_site_fract_y
  _atom_site_fract_z
  _atom_site_occupancy
  H   H1        1.0  0.8677785791744549  0.9878950271575979  0.7901697266389501  1.0000
  H   H2        1.0  0.13222142057701117  0.4878950272758555  0.7098302730556588  1.0000
  H   H3        1.0  0.13222142126376946  0.012104973083467942  0.2098302733486098  1.0000
  H   H4        1.0  0.8677785790027304  0.5121049729652104  0.290169726959441  1.0000
  H   H5        1.0  0.5864249399788916  0.8685519879343386  0.3173337446094072  1.0000
  H   H6        1.0  0.41357505942912526  0.3685519875750152  0.18266625572618364  1.0000
  H   H7        1.0  0.4135750596008499  0.13144801230672726  0.6826662554056927  1.0000
  H   H8        1.0  0.5864249401506162  0.6314480121884697  0.8173337442889163  1.0000
  H   H9        1.0  0.8056366681407459  0.9605864555623774  0.9845627570932708  1.0000
  H   H10       1.0  0.19436333161072009  0.46058645520305397  0.5154372426013383  1.0000
  H   H11       1.0  0.19436333229747838  0.039413544678688545  0.015437242894289278  1.0000
  H   H12       1.0  0.8056366679690213  0.5394135445604311  0.4845627574137616  1.0000
  H   H13       1.0  0.818442088868946  0.08590225755567624  0.6369921804397995  1.0000
  H   H14       1.0  0.18155791088252007  0.5859022574374187  0.8630078192548094  1.0000
  H   H15       1.0  0.18155791156927836  0.9140977426853896  0.3630078195477603  1.0000
  H   H16       1.0  0.8184420886972213  0.4140977428036471  0.1369921807602905  1.0000
  H   H17       1.0  0.24983345140276467  0.7637107067860082  0.5184800843641617  1.0000
  H   H18       1.0  0.7501665492071844  0.26371070642668487  0.9815199153029073  1.0000
  H   H19       1.0  0.7501665490354597  0.23628929345505761  0.48151991562339824  1.0000
  H   H20       1.0  0.24983345123104003  0.7362892933368  0.018480084684652634  1.0000
  H   H21       1.0  0.633352234160706  0.06486427413619283  0.5245610246504131  1.0000
  H   H22       1.0  0.366647766449243  0.5648642740179353  0.975438975016656  1.0000
  H   H23       1.0  0.3666477662775184  0.935135726104873  0.4754389753371468  1.0000
  H   H24       1.0  0.6333522339889813  0.43513572574554965  0.02456102497090404  1.0000
  H   H25       1.0  0.3996527447127807  0.8139825388355619  0.6687312114253369  1.0000
  H   H26       1.0  0.6003472550386852  0.3139825389538195  0.8312687882692722  1.0000
  H   H27       1.0  0.6003472548669606  0.18601746092792304  0.3312687885897631  1.0000
  H   H28       1.0  0.39965274539953904  0.6860174608096655  0.16873121171828778  1.0000
  H   H29       1.0  0.635895168862075  0.7800246626841045  0.9022657419190093  1.0000
  H   H30       1.0  0.3641048308893911  0.2800246623247811  0.5977342577755996  1.0000
  H   H31       1.0  0.36410483071766647  0.21997533755696133  0.09773425809609057  1.0000
  H   H32       1.0  0.6358951686903503  0.7199753374387039  0.4022657422395003  1.0000
  H   H33       1.0  0.4397449857566192  0.8145563985822409  0.1673113985325878  1.0000
  H   H34       1.0  0.5602550145098805  0.3145563982229176  0.332688601775463  1.0000
  H   H35       1.0  0.5602550146816051  0.1854436016588249  0.832688601454972  1.0000
  H   H36       1.0  0.439744985069861  0.6854436015405674  0.6673113982396369  1.0000
  H   H37       1.0  0.8528944176840921  0.9265520203311692  0.21830370262308157  1.0000
  H   H38       1.0  0.14710558258240755  0.4265520199718459  0.2816962976849693  1.0000
  H   H39       1.0  0.1471055827541322  0.07344797990989663  0.7816962973644784  1.0000
  H   H40       1.0  0.8528944169973338  0.5734479797916392  0.7183037023301306  1.0000
  H   H41       1.0  0.7251584782229268  0.0315618357085806  0.27743750062324163  1.0000
  H   H42       1.0  0.27484152118509  0.5315618355903231  0.22256249971234923  1.0000
  H   H43       1.0  0.2748415213568146  0.9684381640549043  0.7225624993918582  1.0000
  H   H44       1.0  0.7251584783946514  0.4684381641731619  0.7774375003027508  1.0000
  H   H45       1.0  0.7806820171416585  0.10247093025830163  0.36063576306202016  1.0000
  H   H46       1.0  0.21931798312484108  0.602470930140044  0.1393642372460307  1.0000
  H   H47       1.0  0.2193179832965657  0.8975290699827642  0.6393642369255398  1.0000
  H   H48       1.0  0.7806820164549002  0.39752907010102173  0.8606357627690693  1.0000
  H   H49       1.0  0.6835101423307153  0.746139068875662  0.14006198912160417  1.0000
  H   H50       1.0  0.3164898570139034  0.2461390689939194  0.3599380101930915  1.0000
  H   H51       1.0  0.31648985724902623  0.2538609308878231  0.8599380108934959  1.0000
  H   H52       1.0  0.683510142565838  0.7538609312471465  0.6400619898220085  1.0000
  H   H53       1.0  0.5500863067217553  0.0037997480610532774  0.7808226919235959  1.0000
  H   H54       1.0  0.4499136930297108  0.5037997479427958  0.7191773077710132  1.0000
  H   H55       1.0  0.44991369285798616  0.9962002521800126  0.21917730809150412  1.0000
  H   H56       1.0  0.5500863065500307  0.4962002518206892  0.28082269224408674  1.0000
  H   H57       1.0  0.44525932815345787  0.06475194090583723  0.9496901606892549  1.0000
  H   H58       1.0  0.5547406715980081  0.5647519412651606  0.550309839005354  1.0000
  H   H59       1.0  0.5547406714262835  0.9352480588576477  0.050309839325844936  1.0000
  H   H60       1.0  0.44525932884021613  0.43524805897590524  0.449690160982206  1.0000
  H   H61       1.0  0.7939450216720807  0.8189452588903787  0.2998711023408556  1.0000
  H   H62       1.0  0.20605497773593598  0.31894525900863624  0.20012889799473527  1.0000
  H   H63       1.0  0.20605497790766067  0.18105474087310627  0.7001288976742444  1.0000
  H   H64       1.0  0.7939450218438053  0.6810547407548487  0.7998711020203646  1.0000
  H   H65       1.0  0.551735135636084  0.1361508104030581  0.11590462594428645  1.0000
  H   H66       1.0  0.44826486463041576  0.6361508102848006  0.3840953743637644  1.0000
  H   H67       1.0  0.44826486480214045  0.8638491898380077  0.8840953740432734  1.0000
  H   H68       1.0  0.5517351358078086  0.36384918947868444  0.6159046256237956  1.0000
  H   H69       1.0  0.26949995602805127  0.7620410157528802  0.26602872893040175  1.0000
  H   H70       1.0  0.7305000433799655  0.26204101587113765  0.23397127140518903  1.0000
  H   H71       1.0  0.7305000435516902  0.23795898401060483  0.7339712710846982  1.0000
  H   H72       1.0  0.26949995619977596  0.7379589838923473  0.7660287286099109  1.0000
  H   H73       1.0  0.7650987413164758  0.14823235193605502  0.10394187205354168  1.0000
  H   H74       1.0  0.234901258950024  0.6482323518177976  0.3960581282545091  1.0000
  H   H75       1.0  0.23490125912174867  0.85176764782743  0.8960581279340182  1.0000
  H   H76       1.0  0.7650987414882003  0.3517676479456875  0.6039418717330508  1.0000
  H   H77       1.0  0.022206047813260438  0.7424919193661179  0.6531517383664456  1.0000
  H   H78       1.0  0.9777939519382056  0.2424919190067945  0.8468482613281634  1.0000
  H   H79       1.0  0.977793951766481  0.257508080874948  0.3468482616486543  1.0000
  H   H80       1.0  0.022206047641535796  0.7575080807566905  0.15315173868693657  1.0000
  H   H81       1.0  0.9799020036200099  0.8712835781327457  0.5068199185608003  1.0000
  H   H82       1.0  0.020097996131456207  0.3712835782510032  0.9931800811338087  1.0000
  H   H83       1.0  0.020097995959731565  0.12871642163073924  0.49318008145429965  1.0000
  H   H84       1.0  0.9799020043067682  0.6287164215124817  0.006819918853751214  1.0000
  H   H85       1.0  0.9032124999793985  0.797997812387696  0.48318413499479124  1.0000
  H   H86       1.0  0.09678750028710131  0.2979978125059535  0.016815865313259556  1.0000
  H   H87       1.0  0.09678750045882595  0.2020021878533699  0.5168158649927687  1.0000
  H   H88       1.0  0.9032124992926401  0.7020021877351124  0.9831841347018404  1.0000
  H   H89       1.0  0.04800006539970823  0.8040372676576741  0.4322569858608653  1.0000
  H   H90       1.0  0.9519999348667914  0.3040372677759317  0.0677430144471856  1.0000
  H   H91       1.0  0.9519999350385161  0.19596273210581078  0.5677430141266947  1.0000
  H   H92       1.0  0.04800006471294996  0.6959627319875533  0.9322569855679144  1.0000
  H   H93       1.0  0.9722542349555892  0.8025598955774306  0.8619000537855185  1.0000
  H   H94       1.0  0.02774576571775795  0.3025598956956881  0.6380999469024459  1.0000
  H   H95       1.0  0.027745765482635142  0.19744010418605437  0.1380999462020416  1.0000
  H   H96       1.0  0.9722542347204665  0.6974401040677969  0.36190005308511414  1.0000
  H   H97       1.0  0.8587045813140792  0.8039868456240516  0.7324692371626718  1.0000
  H   H98       1.0  0.14129541935926787  0.30398684574230905  0.7675307635252924  1.0000
  H   H99       1.0  0.14129541912414506  0.19601315413943343  0.26753076282488814  1.0000
  H   H100      1.0  0.8587045810789565  0.6960131540211759  0.23246923646226753  1.0000
  H   H101      1.0  0.9484736489822985  0.8727857189899104  0.7617662332929888  1.0000
  H   H102      1.0  0.051526350769167645  0.3727857191081679  0.7382337664016203  1.0000
  H   H103      1.0  0.051526350597443  0.12721428077357463  0.2382337667221112  1.0000
  H   H104      1.0  0.9484736496690568  0.6272142806553171  0.26176623358593964  1.0000
  C   C1        1.0  0.7820752334562354  0.9991249555482994  0.7439099990368869  1.0000
  C   C2        1.0  0.2179247662952306  0.499124955188976  0.7560900006577221  1.0000
  C   C3        1.0  0.21792476691859075  0.0008750446927664953  0.2560899999297779  1.0000
  C   C4        1.0  0.7820752332845108  0.500875044574509  0.24390999935737787  1.0000
  C   C5        1.0  0.5893635834101872  0.873702272624429  0.5970515139194116  1.0000
  C   C6        1.0  0.41063641634127884  0.3737022727426866  0.9029484857751975  1.0000
  C   C7        1.0  0.4106364170280371  0.12629772713905593  0.4029484860681483  1.0000
  C   C8        1.0  0.5893635832384625  0.6262977270207984  0.0970515142399025  1.0000
  C   C9        1.0  0.5136742224603715  0.84475376662766  0.36153024984039445  1.0000
  C   C10       1.0  0.48632577774272995  0.3447537667459176  0.13846974944676124  1.0000
  C   C11       1.0  0.4863257779778527  0.15524623313582486  0.6384697501471654  1.0000
  C   C12       1.0  0.5136742218370115  0.6552462334951482  0.8615302505683387  1.0000
  C   C13       1.0  0.717209154378577  0.040964766522378786  0.8425500005598957  1.0000
  C   C14       1.0  0.2827908462947702  0.5409647664041213  0.6574500001280683  1.0000
  C   C15       1.0  0.2827908460596474  0.9590352332411063  0.15744999942766405  1.0000
  C   C16       1.0  0.7172091541434541  0.45903523335936375  0.34254999985949164  1.0000
  C   C17       1.0  0.6560357761666862  0.9307077729366299  0.5846088874675434  1.0000
  C   C18       1.0  0.3439642245066609  0.4307077730548873  0.9153911132204207  1.0000
  C   C19       1.0  0.34396422427153817  0.06929222682685518  0.4153911125200164  1.0000
  C   C20       1.0  0.6560357759315634  0.5692922267085977  0.08460888676713921  1.0000
  C   C21       1.0  0.71808251557893  0.8720959651698716  0.92593891387362  1.0000
  C   C22       1.0  0.28191748417253615  0.3720959652881291  0.574061085820989  1.0000
  C   C23       1.0  0.28191748485929446  0.12790403459361338  0.07406108611393991  1.0000
  C   C24       1.0  0.7180825154072054  0.6279040344753559  0.4259389141941109  1.0000
  C   C25       1.0  0.7741054496364201  0.08366174992120476  0.933347244276601  1.0000
  C   C26       1.0  0.22589455011504592  0.5836617502805281  0.566652755418008  1.0000
  C   C27       1.0  0.22589454994332128  0.9163382498422802  0.06665275573849891  1.0000
  C   C28       1.0  0.7741054503231785  0.41633824996053775  0.4333472445695519  1.0000
  C   C29       1.0  0.7795097511743639  0.9132799160020972  0.015636486255081603  1.0000
  C   C30       1.0  0.22049024909213574  0.41327991564277394  0.48436351405296924  1.0000
  C   C31       1.0  0.2204902492638604  0.08672008423896857  0.9843635137324783  1.0000
  C   C32       1.0  0.7795097513460886  0.5867200841207111  0.5156364859345907  1.0000
  C   C33       1.0  0.8047788789034258  0.03524371537693681  0.6097178509426555  1.0000
  C   C34       1.0  0.19522112084804025  0.5352437157362602  0.8902821487519534  1.0000
  C   C35       1.0  0.1952211215347985  0.9647562843865483  0.3902821490449043  1.0000
  C   C36       1.0  0.8047788787317013  0.4647562845048057  0.10971785126314654  1.0000
  C   C37       1.0  0.5042171641259162  0.8437238591724558  0.5038705890929132  1.0000
  C   C38       1.0  0.49578283562555  0.34372385881313255  0.9961294106016959  1.0000
  C   C39       1.0  0.4957828363123083  0.15627614106860996  0.4961294108946468  1.0000
  C   C40       1.0  0.5042171639541915  0.6562761409503525  0.003870589413404062  1.0000
  C   C41       1.0  0.7154878257061932  0.9400984652629247  0.709252210835205  1.0000
  C   C42       1.0  0.2845121749671539  0.4400984653811823  0.7907477898527592  1.0000
  C   C43       1.0  0.28451217473203116  0.05990153497814108  0.29074778915235494  1.0000
  C   C44       1.0  0.7154878254710705  0.5599015348598836  0.20925221013480086  1.0000
  C   C45       1.0  0.32483597715558293  0.7847813419323357  0.47350343781056503  1.0000
  C   C46       1.0  0.6751640231109168  0.28478134205059324  0.02649656249748586  1.0000
  C   C47       1.0  0.6751640232826415  0.21521865783114927  0.5264965621769949  1.0000
  C   C48       1.0  0.32483597732730757  0.7152186577128917  0.9735034374900741  1.0000
  C   C49       1.0  0.7050783898627271  0.03347273803667315  0.5000335329756717  1.0000
  C   C50       1.0  0.294921609888739  0.5334727379184157  0.9999664667189373  1.0000
  C   C51       1.0  0.29492161057549726  0.9665272622043927  0.49996646701188824  1.0000
  C   C52       1.0  0.7050783896910024  0.4665272618450693  3.353329616255014e-05  1.0000
  C   C53       1.0  0.40854980242967154  0.8134575337020737  0.5587728464525749  1.0000
  C   C54       1.0  0.5914501981802773  0.31345753334275045  0.9412271532144941  1.0000
  C   C55       1.0  0.5914501980085527  0.1865424665389921  0.4412271535349851  1.0000
  C   C56       1.0  0.4085498022579469  0.6865424664207346  0.05877284677306573  1.0000
  C   C57       1.0  0.8879485331758484  0.022690876022913604  0.400523488443534  1.0000
  C   C58       1.0  0.11205146709065135  0.522690875904656  0.09947651186451685  1.0000
  C   C59       1.0  0.11205146640389307  0.9773091242181523  0.5994765115715659  1.0000
  C   C60       1.0  0.887948533347573  0.4773091238588289  0.9005234881230431  1.0000
  C   C61       1.0  0.6845909893955154  0.8114379879334661  0.9718016751619546  1.0000
  C   C62       1.0  0.31540901035595065  0.3114379880517235  0.5281983245326546  1.0000
  C   C63       1.0  0.3154090110427089  0.18856201230759986  0.02819832482560551  1.0000
  C   C64       1.0  0.6845909892237908  0.6885620121893423  0.47180167548244534  1.0000
  C   C65       1.0  0.4307078618214378  0.8145097279463915  0.2771661240149884  1.0000
  C   C66       1.0  0.5692921384450619  0.3145097280646491  0.22283387629306248  1.0000
  C   C67       1.0  0.5692921386167865  0.1854902718170934  0.7228338759725715  1.0000
  C   C68       1.0  0.4307078619931624  0.6854902721764168  0.7771661236944974  1.0000
  C   C69       1.0  0.8057028309949447  0.8938621108961055  0.14975021389854598  1.0000
  C   C70       1.0  0.19429716841307218  0.3938621110143628  0.3502497864370449  1.0000
  C   C71       1.0  0.1942971685847968  0.10613788886737963  0.8502497861165539  1.0000
  C   C72       1.0  0.8057028311666692  0.6061378887491221  0.6497502135780551  1.0000
  C   C73       1.0  0.7667705619946771  0.050347240159395575  0.37167361644119634  1.0000
  C   C74       1.0  0.23322943741333965  0.5503472400411381  0.12832638389439452  1.0000
  C   C75       1.0  0.2332294375850643  0.9496527600816703  0.6283263835739035  1.0000
  C   C76       1.0  0.7667705621664018  0.4496527601999278  0.8716736161207055  1.0000
  C   C77       1.0  0.7119035392679939  0.7927449012985346  0.10532153543874878  1.0000
  C   C78       1.0  0.2880964609351077  0.2927449009392113  0.39467846384840694  1.0000
  C   C79       1.0  0.28809646031174757  0.20725509894253122  0.8946784645763511  1.0000
  C   C80       1.0  0.7119035395031167  0.7072550988242737  0.605321536139153  1.0000
  C   C81       1.0  0.5976179155733023  0.035890037514620554  0.8506002732954161  1.0000
  C   C82       1.0  0.4023820841781638  0.5358900373963631  0.649399726399193  1.0000
  C   C83       1.0  0.40238208400643916  0.9641099627264453  0.14939972671968385  1.0000
  C   C84       1.0  0.5976179162600606  0.4641099628447028  0.350600273588367  1.0000
  C   C85       1.0  0.5381944415447253  0.06994065461861687  0.9469659413210946  1.0000
  C   C86       1.0  0.4618055582067408  0.5699406545003594  0.5530340583735145  1.0000
  C   C87       1.0  0.46180555889349906  0.9300593451448681  0.053034058666465406  1.0000
  C   C88       1.0  0.5381944413730005  0.4300593452631256  0.44696594164158543  1.0000
  C   C89       1.0  0.77282232824257  0.8336826458174241  0.1950852398368716  1.0000
  C   C90       1.0  0.22717767110204853  0.33368264545810067  0.30491475947782415  1.0000
  C   C91       1.0  0.22717767133717134  0.16631735442364182  0.8049147601782283  1.0000
  C   C92       1.0  0.7728223284776929  0.6663173543053844  0.6950852405372758  1.0000
  C   C93       1.0  0.5978249775943509  0.10994068198409203  0.0394010729379619  1.0000
  C   C94       1.0  0.4021750218136658  0.6099406818658345  0.460598927397629  1.0000
  C   C95       1.0  0.40217502198539046  0.8900593182569738  0.960598927077138  1.0000
  C   C96       1.0  0.5978249777660756  0.3900593178976504  0.539401072617471  1.0000
  C   C97       1.0  0.33563446105357364  0.7849567946390381  0.3321121268478356  1.0000
  C   C98       1.0  0.6643655391495278  0.28495679475729563  0.16788787243932016  1.0000
  C   C99       1.0  0.6643655393846507  0.2150432051244469  0.6678878731397243  1.0000
  C   C100      1.0  0.33563446128869645  0.7150432050061895  0.8321121275482398  1.0000
  C   C101      1.0  0.7166907640569892  0.11727829329031635  0.032423901498214606  1.0000
  C   C102      1.0  0.2833092362095106  0.6172782931720588  0.46757609880983625  1.0000
  C   C103      1.0  0.28330923552275233  0.8827217069507496  0.9675760985168853  1.0000
  C   C104      1.0  0.7166907642287138  0.38272170706900704  0.5324239011777238  1.0000
  C   C105      1.0  0.029258413058429515  0.7960274278392009  0.6529592592454609  1.0000
  C   C106      1.0  0.9707415866930366  0.2960274279574583  0.8470407404491481  1.0000
  C   C107      1.0  0.9707415865213119  0.2039725719242842  0.34704074076963903  1.0000
  C   C108      1.0  0.02925841374518779  0.7039725722836075  0.15295925953841186  1.0000
  C   C109      1.0  0.987969833250727  0.8189809876708005  0.5092837140146942  1.0000
  C   C110      1.0  0.012030166500739075  0.31898098778905803  0.9907162856799147  1.0000
  C   C111      1.0  0.012030166329014439  0.18101901209268445  0.4907162860004057  1.0000
  C   C112      1.0  0.9879698330790024  0.6810190124520078  0.009283714335185177  1.0000
  C   C113      1.0  0.9463279964680796  0.8203823112052488  0.7600529749927951  1.0000
  C   C114      1.0  0.05367200420526752  0.3203823113235064  0.7399470256951691  1.0000
  C   C115      1.0  0.05367200397014472  0.17961768903581699  0.23994702499476492  1.0000
  C   C116      1.0  0.9463279962329568  0.6796176889175595  0.2600529742923908  1.0000
  N   N1        1.0  0.6842086034958187  0.8897050482863046  0.7904889801249918  1.0000
  N   N2        1.0  0.31579139625564734  0.3897050484045621  0.7095110195696173  1.0000
  N   N3        1.0  0.3157913960839227  0.11029495195476127  0.20951101989010817  1.0000
  N   N4        1.0  0.6842086033240941  0.6102949518365037  0.29048898044548266  1.0000
  N   N5        1.0  0.9018361996505042  0.012077643517895037  0.5333116714485867  1.0000
  N   N6        1.0  0.09816380016435995  0.5120776438772184  0.9666883292669174  1.0000
  N   N7        1.0  0.09816380078772008  0.9879223562455899  0.4666883285389733  1.0000
  N   N8        1.0  0.9018361994153815  0.4879223563638474  0.033311670748182504  1.0000
  N   N9        1.0  0.6085571507487433  0.8497476340295647  0.7225244322185745  1.0000
  N   N10       1.0  0.3914428490027227  0.34974763414782223  0.7774755674760344  1.0000
  N   N11       1.0  0.391442849689481  0.1502523657339203  0.27747556776898535  1.0000
  N   N12       1.0  0.6085571505770186  0.6502523660932437  0.22252443253906548  1.0000
  O   O1        1.0  0.6569965380601621  0.9696088914844972  0.4752406199786512  1.0000
  O   O2        1.0  0.3430034612844565  0.46960889160275476  0.02475937933604452  1.0000
  O   O3        1.0  0.34300346151957933  0.030391108756568586  0.5247593800364487  1.0000
  O   O4        1.0  0.6569965382952849  0.5303911086383111  0.9752406206790554  1.0000
  O   O5        1.0  0.9565100866032148  0.015178853136294473  0.3075683602534417  1.0000
  O   O6        1.0  0.04348991280480187  0.515178853018037  0.19243164008214916  1.0000
  O   O7        1.0  0.04348991297652651  0.9848211471047714  0.6924316397616582  1.0000
  O   O8        1.0  0.9565100867749396  0.484821146745448  0.8075683599329508  1.0000
  O   O9        1.0  0.14041845457134472  0.8125455767834772  0.6874560397054533  1.0000
  O   O10       1.0  0.8595815451801213  0.3125455769017346  0.8125439599891557  1.0000
  O   O11       1.0  0.8595815458668796  0.18745442298000783  0.3125439602821066  1.0000
  O   O12       1.0  0.14041845439962006  0.6874544233393312  0.18745604002594418  1.0000
  Br  Br1       1.0  0.9357269014052667  0.09585364558941122  0.9255981592095538  1.0000
  Br  Br2       1.0  0.06427309840959756  0.5958536454711537  0.5744018415059503  1.0000
  Br  Br3       1.0  0.06427309817447475  0.9041463546516547  0.07440184080554618  1.0000
  Br  Br4       1.0  0.9357269020286269  0.4041463547699121  0.42559815848160953  1.0000
