data_image0
_chemical_formula_structural       H22C20N2O12S2
_chemical_formula_sum              "H22 C20 N2 O12 S2"
_cell_length_a       7.406325336042338
_cell_length_b       9.096601159394053
_cell_length_c       9.475709294207592
_cell_angle_alpha    70.5738271808627
_cell_angle_beta     69.87920449257582
_cell_angle_gamma    70.86010412669803

_space_group_name_H-M_alt    "P 1"
_space_group_IT_number       1

loop_
  _space_group_symop_operation_xyz
  'x, y, z'

loop_
  _atom_site_type_symbol
  _atom_site_label
  _atom_site_symmetry_multiplicity
  _atom_site_fract_x
  _atom_site_fract_y
  _atom_site_fract_z
  _atom_site_occupancy
  H   H1        1.0  0.8619659476281809  0.28441211188298404  0.6054713154497242  1.0000
  H   H2        1.0  0.1380340524687952  0.7155878881238259  0.3945286850531103  1.0000
  H   H3        1.0  0.09413235226339493  0.0491797927839318  0.6686939290275992  1.0000
  H   H4        1.0  0.9058676478335811  0.9508202072228781  0.33130607147523533  1.0000
  H   H5        1.0  0.49264755714412845  0.5626237908020395  0.31131545851163483  1.0000
  H   H6        1.0  0.5073524429528476  0.43737620920477044  0.6886845419911996  1.0000
  H   H7        1.0  0.17874885713131394  0.33799151335556327  0.5420106937866125  1.0000
  H   H8        1.0  0.8212511429656623  0.6620084866512467  0.4579893067162221  1.0000
  H   H9        1.0  0.665116201153478  0.13048987744009466  0.17640147269264933  1.0000
  H   H10       1.0  0.334883798943498  0.8695101225667152  0.8235985278101852  1.0000
  H   H11       1.0  0.8588463619161846  0.2600279100386553  0.9161064035396694  1.0000
  H   H12       1.0  0.14115363817045345  0.7399720899611293  0.08389359591291536  1.0000
  H   H13       1.0  0.9584647701860495  0.5070059436934589  0.7331604266890501  1.0000
  H   H14       1.0  0.0415352299005884  0.49299405630632565  0.2668395727635346  1.0000
  H   H15       1.0  0.9487473644983466  0.7976619633515019  0.681065997694843  1.0000
  H   H16       1.0  0.05125263558829111  0.2023380366482828  0.3189340017577417  1.0000
  H   H17       1.0  0.7685399337383824  0.9418599580131907  0.8886819064709456  1.0000
  H   H18       1.0  0.23146006635859362  0.05814004199361925  0.11131809403188897  1.0000
  H   H19       1.0  0.5949797427785881  0.8036839582052814  0.148661854412447  1.0000
  H   H20       1.0  0.405020257318388  0.1963160418015286  0.8513381460903875  1.0000
  H   H21       1.0  0.39486912281898  0.1761264713359335  0.40164301274296915  1.0000
  H   H22       1.0  0.605130877267658  0.823873528663851  0.5983569867096156  1.0000
  C   C1        1.0  0.5675920782611159  0.34367993802622304  0.25932329744161087  1.0000
  C   C2        1.0  0.432407921825522  0.6563200619735615  0.7406767020109739  1.0000
  C   C3        1.0  0.673048537220297  0.2547149261000196  0.1476695074722416  1.0000
  C   C4        1.0  0.32695146286634086  0.745285073899765  0.8523304919803432  1.0000
  C   C5        1.0  0.7782156877107812  0.3273295800424886  0.004308499021290809  1.0000
  C   C6        1.0  0.22178431238619492  0.6726704199643213  0.9956915014815437  1.0000
  C   C7        1.0  0.780295097801917  0.4905672869424672  0.9692986122638476  1.0000
  C   C8        1.0  0.21970490228472095  0.5094327130573174  0.03070138718873722  1.0000
  C   C9        1.0  0.880238896696294  0.5731257976474169  0.8223899306209961  1.0000
  C   C10       1.0  0.11976110339034388  0.4268742023523677  0.1776100688315888  1.0000
  C   C11       1.0  0.8738115463796732  0.7332815883070493  0.7942916389595344  1.0000
  C   C12       1.0  0.1261884522688621  0.26671841169340804  0.20570836088862254  1.0000
  C   C13       1.0  0.7703153897071108  0.8156584603008169  0.9128398104453378  1.0000
  C   C14       1.0  0.22968461037952714  0.18434153969896755  0.08716018900724683  1.0000
  C   C15       1.0  0.672097568409439  0.7393316416650467  0.057936691425837655  1.0000
  C   C16       1.0  0.327902431687537  0.26066835834176316  0.9420633090769968  1.0000
  C   C17       1.0  0.6748235531590611  0.5765291271681783  0.08665633550888734  1.0000
  C   C18       1.0  0.3251764454894743  0.4234708728322788  0.9133436643392695  1.0000
  C   C19       1.0  0.4463632527052898  0.270736871292209  0.41389607940330464  1.0000
  C   C20       1.0  0.5536367473813482  0.7292631287075755  0.5861039200492801  1.0000
  N   N1        1.0  0.5732123055474763  0.4972753485870399  0.22776101107468263  1.0000
  N   N2        1.0  0.4267876945494998  0.5027246514197701  0.7722389894281518  1.0000
  O   O1        1.0  0.979811282571148  0.27665174031972306  0.6404487653884076  1.0000
  O   O2        1.0  0.020188717515489934  0.7233482596800617  0.35955123406417705  1.0000
  O   O3        1.0  0.0068598917313645634  0.11554310202484622  0.7433644308187436  1.0000
  O   O4        1.0  0.9931401083552734  0.8844568979749384  0.256635568633841  1.0000
  O   O5        1.0  0.29571068569947007  0.3857476481683828  0.4809323098066812  1.0000
  O   O6        1.0  0.7042893129490653  0.6142523518320744  0.5190676900414756  1.0000
  O   O7        1.0  0.7884282158885892  0.0593591487840268  0.463903723319858  1.0000
  O   O8        1.0  0.21157178420838688  0.9406408512227831  0.5360962771829765  1.0000
  O   O9        1.0  0.48903291638380236  0.06772834192714772  0.6822638744152205  1.0000
  O   O10       1.0  0.5109670837131739  0.9322716580796622  0.31773612608761403  1.0000
  O   O11       1.0  0.6571948430832749  0.2888001694012874  0.5800379107006447  1.0000
  O   O12       1.0  0.34280515700336295  0.7111998305984972  0.41996208875194  1.0000
  S   S1        1.0  0.6105853738049104  0.15862046708159408  0.5468381988332992  1.0000
  S   S2        1.0  0.3894146262920659  0.8413795329252157  0.4531618016695353  1.0000
