data_image0
_chemical_formula_structural       H8C12N2O4S4
_chemical_formula_sum              "H8 C12 N2 O4 S4"
_cell_length_a       6.820807730392679
_cell_length_b       7.36823379951632
_cell_length_c       7.827604541536511
_cell_angle_alpha    78.5465468955957
_cell_angle_beta     68.86421536942068
_cell_angle_gamma    71.25915259896564

_space_group_name_H-M_alt    "P 1"
_space_group_IT_number       1

loop_
  _space_group_symop_operation_xyz
  'x, y, z'

loop_
  _atom_site_type_symbol
  _atom_site_label
  _atom_site_symmetry_multiplicity
  _atom_site_fract_x
  _atom_site_fract_y
  _atom_site_fract_z
  _atom_site_occupancy
  H   H1        1.0  0.21059153003834563  0.5299983731442213  0.2435886514772793  1.0000
  H   H2        1.0  0.7894084697575382  0.4700016262973564  0.7564113484134843  1.0000
  H   H3        1.0  0.8968600693578996  0.41726041861563  0.21549173976246142  1.0000
  H   H4        1.0  0.10313993154336996  0.5827395822795629  0.7845082595297094  1.0000
  H   H5        1.0  0.884437144950722  0.979385211612748  0.46058282051738175  1.0000
  H   H6        1.0  0.11556285593602324  0.020614789274815734  0.5394171800582169  1.0000
  H   H7        1.0  0.1940354405291956  0.26951569030656264  0.6520737633336221  1.0000
  H   H8        1.0  0.8059645608339541  0.7304843091492326  0.3479262360758407  1.0000
  C   C1        1.0  0.4233789428950662  0.08149612392879597  0.03842684508029993  1.0000
  C   C2        1.0  0.5766210568862932  0.9185038755051527  0.9615731560938915  1.0000
  C   C3        1.0  0.2305261292217788  0.4011423182592494  0.1832050083244044  1.0000
  C   C4        1.0  0.7694738705595805  0.5988576811746993  0.8167949928497871  1.0000
  C   C5        1.0  0.0700487872444644  0.3417878883793188  0.16937421186291987  1.0000
  C   C6        1.0  0.9299512125514193  0.658212111062259  0.8306257880278437  1.0000
  C   C7        1.0  0.7166286335366605  0.9891501584006772  0.47690977493194153  1.0000
  C   C8        1.0  0.2833713662592232  0.010849841040900612  0.5230902249588221  1.0000
  C   C9        1.0  0.5442826770421106  0.13988515923606856  0.5651376006716542  1.0000
  C   C10       1.0  0.455717322291893  0.860114841644907  0.43486239910181723  1.0000
  C   C11       1.0  0.32707919378513084  0.15111205043635684  0.5870434494198477  1.0000
  C   C12       1.0  0.6729208055488729  0.8488879504446187  0.41295655035362383  1.0000
  N   N1        1.0  0.5919507632328359  0.28136454591763765  0.6333429307819959  1.0000
  N   N2        1.0  0.4080492381303137  0.7186354535381576  0.36665706862746694  1.0000
  O   O1        1.0  0.7877245556599005  0.2597726556630709  0.6209860782873067  1.0000
  O   O2        1.0  0.21227544367410323  0.7402273452179048  0.3790139214861646  1.0000
  O   O3        1.0  0.4392885975551118  0.4218062022916129  0.7055798524314641  1.0000
  O   O4        1.0  0.5607114022407719  0.5781937971499649  0.2944201474592995  1.0000
  S   S1        1.0  0.14606343885951983  0.12739212167879393  0.07386531216338768  1.0000
  S   S2        1.0  0.8539365609218394  0.8726078777551546  0.926134689010804  1.0000
  S   S3        1.0  0.4938953196852652  0.2569511116504132  0.10323930298888247  1.0000
  S   S4        1.0  0.5061046796487385  0.7430488892305624  0.8967606967845889  1.0000
