data_image0
_chemical_formula_structural       H14C6N2Cl8
_chemical_formula_sum              "H14 C6 N2 Cl8"
_cell_length_a       6.421338064392235
_cell_length_b       7.298810927719136
_cell_length_c       8.83255889694336
_cell_angle_alpha    93.19837844286671
_cell_angle_beta     103.27913570021721
_cell_angle_gamma    102.51076681932007

_space_group_name_H-M_alt    "P 1"
_space_group_IT_number       1

loop_
  _space_group_symop_operation_xyz
  'x, y, z'

loop_
  _atom_site_type_symbol
  _atom_site_label
  _atom_site_symmetry_multiplicity
  _atom_site_fract_x
  _atom_site_fract_y
  _atom_site_fract_z
  _atom_site_occupancy
  H   H1        1.0  0.38232972898118983  0.1520463401418371  0.6375820455932547  1.0000
  H   H2        1.0  0.6176702723001773  0.8479536598393833  0.3624179545517259  1.0000
  H   H3        1.0  0.3953043541093519  0.18867355222026183  0.8430853529430838  1.0000
  H   H4        1.0  0.6046956456125631  0.8113264477573986  0.15691464719784326  1.0000
  H   H5        1.0  0.44659534739358975  0.9760847112955997  0.7641212394708348  1.0000
  H   H6        1.0  0.553404651925425  0.023915288525813618  0.23587875949957668  1.0000
  H   H7        1.0  0.9882413464589506  0.2607970825083837  0.9831322842802106  1.0000
  H   H8        1.0  0.011758652860064169  0.7392029173130296  0.01686771469020099  1.0000
  H   H9        1.0  0.789837827982517  0.03901566623977763  0.9609780416964437  1.0000
  H   H10       1.0  0.2101621717393978  0.9609843337378827  0.03902195844448336  1.0000
  H   H11       1.0  0.7300232260340418  0.2500373454922143  0.03448050705255419  1.0000
  H   H12       1.0  0.2699767752473252  0.7499626544890061  0.9655194930924267  1.0000
  H   H13       1.0  0.2262851681392255  0.22386012923221574  0.26190966455104747  1.0000
  H   H14       1.0  0.7737148330816234  0.7761398719962327  0.7380903344239301  1.0000
  C   C1        1.0  0.800601191466521  0.307134722999963  0.6990510085935172  1.0000
  C   C2        1.0  0.1993988082553939  0.6928652769776974  0.3009489915474099  1.0000
  C   C3        1.0  0.46440641536858324  0.1279440692752931  0.7549042580938382  1.0000
  C   C4        1.0  0.5355935846957137  0.8720559321058424  0.24509574204760123  1.0000
  C   C5        1.0  0.8130544875889526  0.19172727014423996  0.9542432810366538  1.0000
  C   C6        1.0  0.18694551369241466  0.8082727298369804  0.04575671910832699  1.0000
  N   N1        1.0  0.7009132447688365  0.21661794570700932  0.7950266304961288  1.0000
  N   N2        1.0  0.29908675495307846  0.7833820542706511  0.20497336964479837  1.0000
  Cl  Cl1       1.0  0.6670890786244797  0.3262276504947554  0.5148617081282758  1.0000
  Cl  Cl2       1.0  0.3329109210974352  0.6737723494829051  0.4851382920126512  1.0000
  Cl  Cl3       1.0  0.07171540480716536  0.4117207931277641  0.751092232250071  1.0000
  Cl  Cl4       1.0  0.9282845949147495  0.5882792068498962  0.24890776789085592  1.0000
  Cl  Cl5       1.0  0.07762078948752422  0.12443552816517665  0.3424426730584778  1.0000
  Cl  Cl6       1.0  0.9223792117938429  0.8755644718160437  0.6575573270865029  1.0000
  Cl  Cl7       1.0  0.41189174285258945  0.3410437626115178  0.15983809595259282  1.0000
  Cl  Cl8       1.0  0.5881082568693256  0.6589562373661425  0.8401619041883343  1.0000
