data_image0
_chemical_formula_structural       H84C80N24O20S4Br4
_chemical_formula_sum              "H84 C80 N24 O20 S4 Br4"
_cell_length_a       15.340791337150625
_cell_length_b       7.767139414803441
_cell_length_c       19.557544367233614
_cell_angle_alpha    90.0
_cell_angle_beta     105.55471169999893
_cell_angle_gamma    90.0

_space_group_name_H-M_alt    "P 1"
_space_group_IT_number       1

loop_
  _space_group_symop_operation_xyz
  'x, y, z'

loop_
  _atom_site_type_symbol
  _atom_site_label
  _atom_site_symmetry_multiplicity
  _atom_site_fract_x
  _atom_site_fract_y
  _atom_site_fract_z
  _atom_site_occupancy
  H   H1        1.0  0.5243985612420083  0.3840392377037675  0.16990508813607202  1.0000
  H   H2        1.0  0.9756014386598038  0.8840392380382897  0.3300949120423803  1.0000
  H   H3        1.0  0.4756014385613096  0.6159607629652767  0.8300949117515316  1.0000
  H   H4        1.0  0.024398561143514248  0.1159607626307546  0.6699050878452234  1.0000
  H   H5        1.0  0.46826221286885444  0.9159971696194986  0.12959320449533035  1.0000
  H   H6        1.0  0.03173778735895176  0.41599716928497643  0.3704067954491142  1.0000
  H   H7        1.0  0.5317377875867579  0.08400283104954562  0.8704067953935587  1.0000
  H   H8        1.0  0.9682622124443663  0.5840028313840676  0.6295932044384895  1.0000
  H   H9        1.0  0.19737848017367918  0.5746287006891518  0.04865388228468338  1.0000
  H   H10       1.0  0.30262152005412696  0.074628701642105  0.4513461176597611  1.0000
  H   H11       1.0  0.8026215202819331  0.42537129869241713  0.9513461176042056  1.0000
  H   H12       1.0  0.697378479749191  0.9253712990269392  0.5486538822278426  1.0000
  H   H13       1.0  0.08682602524691864  0.6081239807537988  0.11600656399864444  1.0000
  H   H14       1.0  0.4131739743285932  0.10812398041927676  0.38399343594451474  1.0000
  H   H15       1.0  0.9131739745563994  0.3918760199152453  0.8839934358889594  1.0000
  H   H16       1.0  0.5868260256545922  0.8918760202497674  0.6160065644738378  1.0000
  H   H17       1.0  0.3026762621517448  0.6703212807120391  0.3091468448597949  1.0000
  H   H18       1.0  0.1973237380760614  0.17032128166499225  0.19085315508464964  1.0000
  H   H19       1.0  0.6973237383038675  0.3296787186695298  0.6908531550290941  1.0000
  H   H20       1.0  0.8026762617272567  0.829678719004052  0.8091468448029542  1.0000
  H   H21       1.0  0.4142177828541332  0.6332821013390394  0.24233367317769142  1.0000
  H   H22       1.0  0.08578221755354035  0.13328210100451734  0.25766632729750194  1.0000
  H   H23       1.0  0.5857822177813465  0.3667178993300047  0.7576663272419465  1.0000
  H   H24       1.0  0.9142177824296449  0.8667178983770516  0.7423336731208506  1.0000
  H   H25       1.0  0.4145318714264978  0.6333297546616121  0.007644390010280382  1.0000
  H   H26       1.0  0.08546812814901411  0.13332975561456525  0.49235560993287886  1.0000
  H   H27       1.0  0.5854681283768203  0.36667024471995685  0.9923556098773233  1.0000
  H   H28       1.0  0.9145318716543039  0.8666702450544789  0.5076443899547248  1.0000
  H   H29       1.0  0.2997226772824417  0.6749111687127687  0.0006787693317355536  1.0000
  H   H30       1.0  0.20027732294536452  0.17491116837824655  0.49932123061270894  1.0000
  H   H31       1.0  0.7002773231731707  0.3250888319562755  0.9993212305571534  1.0000
  H   H32       1.0  0.7997226768579535  0.8250888322907975  0.5006787692748947  1.0000
  H   H33       1.0  0.45564454989576425  0.2829357814553421  0.05327063708431106  1.0000
  H   H34       1.0  0.04435545033204189  0.7829357817898641  0.4467293628601334  1.0000
  H   H35       1.0  0.5443554499075537  0.7170642179262269  0.9467293628032926  1.0000
  H   H36       1.0  0.9556445501235704  0.21706421887917998  0.5532706370287555  1.0000
  H   H37       1.0  0.41328697537337405  0.9961771119046932  0.9996335590082803  1.0000
  H   H38       1.0  0.08671302451131715  0.4961771115701711  0.5003664411192237  1.0000
  H   H39       1.0  0.5867130244299439  0.003822888764351016  0.0003664408793234146  1.0000
  H   H40       1.0  0.9132869754718682  0.5038228878113978  0.499633559299129  1.0000
  H   H41       1.0  0.2006539540827745  0.48639281313783467  0.9283199487949964  1.0000
  H   H42       1.0  0.29934604645421103  0.9863928134723567  0.571680051333793  1.0000
  H   H43       1.0  0.7993460465527052  0.5136071862437344  0.07168005162464156  1.0000
  H   H44       1.0  0.7006539540014013  0.013607187196687473  0.42831994855509603  1.0000
  H   H45       1.0  0.22408879104031715  0.9355414988626015  0.7501767355697017  1.0000
  H   H46       1.0  0.27591120949666836  0.43554149852807933  0.7498232645590875  1.0000
  H   H47       1.0  0.7759112094152951  0.06445850180644272  0.2498232643191874  1.0000
  H   H48       1.0  0.7240887909589439  0.5644585008534896  0.25017673532980134  1.0000
  H   H49       1.0  0.32992849759629406  0.04736271236471807  0.7874545862804272  1.0000
  H   H50       1.0  0.17007150210852978  0.5473627126992401  0.712545413316328  1.0000
  H   H51       1.0  0.6700715022070239  0.9526372870168508  0.21254541360717663  1.0000
  H   H52       1.0  0.8299284976947884  0.452637287969804  0.28745458657127576  1.0000
  H   H53       1.0  0.16135969481700593  0.0009672776036028094  0.9997125411887944  1.0000
  H   H54       1.0  0.33864030488781793  0.5009672779381249  0.5002874584079606  1.0000
  H   H55       1.0  0.8386403049863121  0.9990327217779661  0.0002874586988093187  1.0000
  H   H56       1.0  0.6613596949155001  0.4990327227309193  0.49971254147964306  1.0000
  H   H57       1.0  0.13214869109479  0.9415253865615164  0.0779338118070961  1.0000
  H   H58       1.0  0.36785130913301617  0.44152538622699433  0.4220661881373484  1.0000
  H   H59       1.0  0.8678513087085279  0.05847461410752774  0.9220661880805076  1.0000
  H   H60       1.0  0.6321486906703018  0.5584746131545745  0.5779338117502553  1.0000
  H   H61       1.0  0.214980962753365  0.10481086620492978  0.08102403580778729  1.0000
  H   H62       1.0  0.2850190374744412  0.6048108665394519  0.4189759641366572  1.0000
  H   H63       1.0  0.7850190372298204  0.8951891331766391  0.9189759646105654  1.0000
  H   H64       1.0  0.7149809623288769  0.395189132842117  0.5810240357509465  1.0000
  H   H65       1.0  0.0973025477429592  0.3069889173684082  0.014327348175551268  1.0000
  H   H66       1.0  0.4026974518325527  0.806988916415455  0.485672651767608  1.0000
  H   H67       1.0  0.9026974520603589  0.693011083300636  0.9856726517120525  1.0000
  H   H68       1.0  0.5973025479707654  0.19301108296611388  0.5143273481199958  1.0000
  H   H69       1.0  0.0162312093401853  0.14006766994892825  0.9919384600117415  1.0000
  H   H70       1.0  0.48376879054450594  0.6400676702834504  0.5080615401157625  1.0000
  H   H71       1.0  0.9837687904631327  0.8599323294326406  0.008061539875862249  1.0000
  H   H72       1.0  0.5162312094386794  0.35993232909811856  0.49193846030259014  1.0000
  H   H73       1.0  0.9007757292927917  0.4193452938146374  0.1615030069400359  1.0000
  H   H74       1.0  0.5992242706090205  0.9193452941491596  0.3384969932384165  1.0000
  H   H75       1.0  0.09922427051052637  0.5806547055669314  0.8384969929475677  1.0000
  H   H76       1.0  0.40077572919429755  0.08065470523240935  0.6615030066491873  1.0000
  H   H77       1.0  0.015207903802874482  0.3651629742340316  0.20462880818134047  1.0000
  H   H78       1.0  0.4847920964249317  0.8651629745685536  0.29537119176310406  1.0000
  H   H79       1.0  0.9847920960004436  0.6348370251475374  0.7953711917062632  1.0000
  H   H80       1.0  0.5152079033783863  0.1348370261004905  0.7046288081244997  1.0000
  H   H81       1.0  0.9324553304047366  0.20036064719450936  0.17778183566401418  1.0000
  H   H82       1.0  0.5675446694970755  0.7003606462415563  0.3222181645144382  1.0000
  H   H83       1.0  0.06754466957844875  0.7996393534745349  0.8222181647543385  1.0000
  H   H84       1.0  0.43245533030624245  0.2996393531400128  0.6777818353731655  1.0000
  C   C1        1.0  0.5342536935641607  0.5223137597180191  0.16840447709214726  1.0000
  C   C2        1.0  0.9657463069899459  0.022313759383497042  0.3315955230875903  1.0000
  C   C3        1.0  0.4657463068914517  0.477686240951025  0.8315955227967418  1.0000
  C   C4        1.0  0.03425369346566655  0.9776862399980718  0.6684044768012987  1.0000
  C   C5        1.0  0.5044904664670132  0.7969361832494731  0.14693797924574498  1.0000
  C   C6        1.0  0.9955095334347989  0.2969361842024263  0.35306202093270733  1.0000
  C   C7        1.0  0.49550953351617216  0.20306381613209581  0.8530620211726078  1.0000
  C   C8        1.0  0.004490466368519154  0.7030638164666179  0.6469379789548964  1.0000
  C   C9        1.0  0.31510232829571355  0.6051921961180552  0.13992375696427128  1.0000
  C   C10       1.0  0.1848976712797983  0.10519219578353306  0.3600762429788879  1.0000
  C   C11       1.0  0.6848976715076045  0.3948078032635137  0.8600762429233324  1.0000
  C   C12       1.0  0.8151023287033871  0.8948078035980358  0.6399237574394647  1.0000
  C   C13       1.0  0.22192153255782116  0.5939271620653331  0.10558883895032019  1.0000
  C   C14       1.0  0.2780784670176907  0.09392716301828634  0.394411160992839  1.0000
  C   C15       1.0  0.7780784672454969  0.4060728373162357  0.8944111609372835  1.0000
  C   C16       1.0  0.7219215329654947  0.9060728376507579  0.6055888394255136  1.0000
  C   C17       1.0  0.1585187949313599  0.6127805857235855  0.14407323851447454  1.0000
  C   C18       1.0  0.34148120464415194  0.11278058667653876  0.3559267614286847  1.0000
  C   C19       1.0  0.8414812048719581  0.3872194136579833  0.8559267613731291  1.0000
  C   C20       1.0  0.6585187951591661  0.8872194139925054  0.644073238458919  1.0000
  C   C21       1.0  0.1862924313681058  0.6414414450324478  0.21783518734340876  1.0000
  C   C22       1.0  0.31370756885970036  0.141441445985401  0.28216481260103576  1.0000
  C   C23       1.0  0.8137075692673739  0.3585585543491211  0.7821648130762292  1.0000
  C   C24       1.0  0.6862924309436177  0.8585585546836432  0.7178351872865679  1.0000
  C   C25       1.0  0.27948328079834533  0.6485095246777504  0.25223365581998985  1.0000
  C   C26       1.0  0.22051671960932814  0.14850952434322837  0.24776634465520347  1.0000
  C   C27       1.0  0.7205167191848401  0.35149047599129374  0.7477663445983628  1.0000
  C   C28       1.0  0.7794832803738572  0.8514904750383406  0.7522336557631492  1.0000
  C   C29       1.0  0.34284279200745216  0.6292360145725132  0.21411727494201968  1.0000
  C   C30       1.0  0.1571572082203541  0.12923601423799116  0.28588272500242484  1.0000
  C   C31       1.0  0.6571572077958658  0.3707639860965309  0.785882724945584  1.0000
  C   C32       1.0  0.8428427922352583  0.8707639851435778  0.7141172748864641  1.0000
  C   C33       1.0  0.12283432027770771  0.6628946250387728  0.2582637926466372  1.0000
  C   C34       1.0  0.3771656792978041  0.16289462470425073  0.24173620729652204  1.0000
  C   C35       1.0  0.8771656795256103  0.3371053756302714  0.7417362072409664  1.0000
  C   C36       1.0  0.6228343205055139  0.8371053746773182  0.7582637925910817  1.0000
  C   C37       1.0  0.35536285269514367  0.5849875259532709  0.02325382749558114  1.0000
  C   C38       1.0  0.14463714688036822  0.08498752561874867  0.4767461724475781  1.0000
  C   C39       1.0  0.6446371471081744  0.4150124747157734  0.9767461723920225  1.0000
  C   C40       1.0  0.8553628529229499  0.9150124750502955  0.5232538274400257  1.0000
  C   C41       1.0  0.3311331471682512  0.4061514235199077  0.9935672084110337  1.0000
  C   C42       1.0  0.16886685271644  0.9061514225669546  0.5064327917164703  1.0000
  C   C43       1.0  0.6688668526350668  0.5938485771491365  0.006432791476569895  1.0000
  C   C44       1.0  0.8311331470868781  0.09384857681461442  0.4935672081711336  1.0000
  C   C45       1.0  0.3908297008344682  0.2673443296308528  0.013824194336101764  1.0000
  C   C46       1.0  0.10917029892091087  0.7673443299653749  0.4861758061378063  1.0000
  C   C47       1.0  0.6091702991487171  0.732655669750716  0.9861758060822509  1.0000
  C   C48       1.0  0.8908297010622744  0.232655669416194  0.5138241942805463  1.0000
  C   C49       1.0  0.3674269377518988  0.1050518506781108  0.9845234515951442  1.0000
  C   C50       1.0  0.1325730627850868  0.6050518510126329  0.5154765485336451  1.0000
  C   C51       1.0  0.6325730627037136  0.8949481499909333  0.015476548293744749  1.0000
  C   C52       1.0  0.8674269378503929  0.3949481496564113  0.48452345188599283  1.0000
  C   C53       1.0  0.2845407260351967  0.07938273244134932  0.93406986009264  1.0000
  C   C54       1.0  0.21545927384949454  0.5793827314883961  0.5659301400348639  1.0000
  C   C55       1.0  0.7154592737681214  0.9206172682276949  0.06593013979496369  1.0000
  C   C56       1.0  0.7845407259538235  0.4206172678931728  0.43406985985273977  1.0000
  C   C57       1.0  0.22521747867132977  0.21831246736323856  0.9135436663232801  1.0000
  C   C58       1.0  0.2747825212133615  0.7183124664102853  0.586456333804224  1.0000
  C   C59       1.0  0.7747825211319883  0.7816875333058056  0.08645633356432367  1.0000
  C   C60       1.0  0.7252174785899566  0.2816875329712835  0.4135436660833798  1.0000
  C   C61       1.0  0.2480873874603877  0.3801244669785185  0.9436928465714424  1.0000
  C   C62       1.0  0.25191261242430346  0.8801244673130406  0.5563071535560615  1.0000
  C   C63       1.0  0.7519126123429303  0.6198755336905257  0.05630715331616132  1.0000
  C   C64       1.0  0.7480873873790145  0.11987553335600358  0.4436928463315421  1.0000
  C   C65       1.0  0.15062762958812279  0.05095353242220841  0.04921106382649012  1.0000
  C   C66       1.0  0.3493723706396834  0.5509535327567305  0.45078893611795445  1.0000
  C   C67       1.0  0.8493723702151953  0.9490464669593605  0.9507889360611136  1.0000
  C   C68       1.0  0.6506276298159289  0.4490464679123137  0.5492110637709346  1.0000
  C   C69       1.0  0.07609929275696162  0.18430493178372115  0.032654397044247906  1.0000
  C   C70       1.0  0.4239007068185502  0.6843049321182433  0.46734560289891136  1.0000
  C   C71       1.0  0.9239007072262239  0.8156950675978477  0.9673456033741047  1.0000
  C   C72       1.0  0.5760992929847679  0.3156950672633257  0.5326543969886924  1.0000
  C   C73       1.0  0.9752163517698549  0.3120352243685501  0.09304770051798827  1.0000
  C   C74       1.0  0.5247836479520899  0.8120352247030721  0.4069522991297152  1.0000
  C   C75       1.0  0.024783648033463095  0.6879647750130189  0.9069522993696154  1.0000
  C   C76       1.0  0.47521635185122807  0.18796477596597205  0.5930477007578885  1.0000
  C   C77       1.0  0.9546901467673169  0.3265337461519201  0.16345133543065363  1.0000
  C   C78       1.0  0.5453098529546279  0.8265337464864422  0.3365486642170499  1.0000
  C   C79       1.0  0.04530985303600111  0.6734662532296488  0.8365486644569501  1.0000
  C   C80       1.0  0.4546901468486901  0.17346625418260198  0.6634513356705538  1.0000
  N   N1        1.0  0.29029668598168146  0.9360922086891623  0.7828556792538559  1.0000
  N   N2        1.0  0.20970331390300975  0.4360922083546402  0.7171443208736481  1.0000
  N   N3        1.0  0.7097033138216365  0.0639077919798819  0.2171443206337478  1.0000
  N   N4        1.0  0.7902966860801756  0.5639077910269287  0.28285567954470453  1.0000
  N   N5        1.0  0.37863286687821845  0.5939748771867193  0.10107299417596254  1.0000
  N   N6        1.0  0.1213671333495877  0.09397487685219715  0.39892700576848195  1.0000
  N   N7        1.0  0.6213671337572613  0.40602512219484965  0.8989270062436754  1.0000
  N   N8        1.0  0.8786328664537302  0.9060251225293717  0.6010729941191217  1.0000
  N   N9        1.0  0.4670085446193331  0.6350329544232627  0.13565544318322204  1.0000
  N   N10       1.0  0.03299145495617873  0.13503295408874055  0.36434455675993715  1.0000
  N   N11       1.0  0.5329914551839849  0.3649670462457816  0.8643445567043817  1.0000
  N   N12       1.0  0.9670085448471392  0.8649670465803037  0.6356554431276665  1.0000
  N   N13       1.0  0.6082334804847322  0.6101012325037455  0.19731037899025233  1.0000
  N   N14       1.0  0.8917665194170799  0.11010123216922346  0.3026896211882  1.0000
  N   N15       1.0  0.39176651931858575  0.3898987668778234  0.8026896208973514  1.0000
  N   N16       1.0  0.1082334805661055  0.8898987672123455  0.6973103792301527  1.0000
  N   N17       1.0  0.5893762928603814  0.7827627760115156  0.18366379346191772  1.0000
  N   N18       1.0  0.9106237070414308  0.28276277567699354  0.3163362067165347  1.0000
  N   N19       1.0  0.41062370694293654  0.21723722465752857  0.8163362064256859  1.0000
  N   N20       1.0  0.08937629276188729  0.7172372237045754  0.6836637931710691  1.0000
  N   N21       1.0  0.07220433656912847  0.6800237407781441  0.29315667313852395  1.0000
  N   N22       1.0  0.42779566318625073  0.1800237404436219  0.2068433273353842  1.0000
  N   N23       1.0  0.9277956634140568  0.31997625989090017  0.7068433272798287  1.0000
  N   N24       1.0  0.5722043367969346  0.8199762602254222  0.7931566730829684  1.0000
  O   O1        1.0  0.4044843082653518  0.8282911064707351  0.8880403942353123  1.0000
  O   O2        1.0  0.09551569161933943  0.32829110613621304  0.6119596058921917  1.0000
  O   O3        1.0  0.5955156917178335  0.17170889291083374  0.1119596061830403  1.0000
  O   O4        1.0  0.9044843081839786  0.6717088932453558  0.38804039399541207  1.0000
  O   O5        1.0  0.2610362756512606  0.6635346264259664  0.8393556662391902  1.0000
  O   O6        1.0  0.23896372423343062  0.16353462737891955  0.6606443338883138  1.0000
  O   O7        1.0  0.7389637241520575  0.3364653729556025  0.1606443336484136  1.0000
  O   O8        1.0  0.7610362757497546  0.8364653732901246  0.3393556665300388  1.0000
  O   O9        1.0  0.25703697865930464  0.9162006975743319  0.9084448030458071  1.0000
  O   O10       1.0  0.24296302122538654  0.41620069723980974  0.5915551970816968  1.0000
  O   O11       1.0  0.7429630213238806  0.08379930309471231  0.09155519737254542  1.0000
  O   O12       1.0  0.7570369785779315  0.5837993021417591  0.408444802805907  1.0000
  O   O13       1.0  0.05011839200691243  0.21524288553565354  0.09809307593808643  1.0000
  O   O14       1.0  0.4498816075685994  0.7152428858701756  0.4019069240050728  1.0000
  O   O15       1.0  0.9498816077964054  0.7847571151333906  0.9019069239495172  1.0000
  O   O16       1.0  0.5501183922347186  0.28475711479886856  0.5980930758825309  1.0000
  O   O17       1.0  0.9308270758345342  0.3757288924720367  0.03717614785350426  1.0000
  O   O18       1.0  0.5691729238874106  0.8757288928065589  0.4628238517941991  1.0000
  O   O19       1.0  0.06917292396878376  0.6242711081970075  0.9628238520340995  1.0000
  O   O20       1.0  0.43082707591590746  0.1242711078624854  0.5371761480934045  1.0000
  S   S1        1.0  0.3090071627687165  0.8235621981766473  0.8521899207134163  1.0000
  S   S2        1.0  0.19099283711597467  0.32356219912960055  0.6478100794140877  1.0000
  S   S3        1.0  0.6909928370346016  0.17643780120492153  0.14781007917418748  1.0000
  S   S4        1.0  0.8090071628672106  0.6764378015394437  0.3521899210042649  1.0000
  Br  Br1       1.0  0.11066809070031995  0.18736117279244532  0.8472022168630725  1.0000
  Br  Br2       1.0  0.38933190918437127  0.6873611718394922  0.6527977832644315  1.0000
  Br  Br3       1.0  0.889331909102998  0.8126388278765988  0.15279778302453118  1.0000
  Br  Br4       1.0  0.610668090798814  0.3126388275420768  0.34720221715392113  1.0000
