data_image0
_chemical_formula_structural       H72C88N8O8F16I8
_chemical_formula_sum              "H72 C88 N8 O8 F16 I8"
_cell_length_a       33.334136803161776
_cell_length_b       4.944780756554877
_cell_length_c       19.458802926234732
_cell_angle_alpha    90.0
_cell_angle_beta     134.73395614937672
_cell_angle_gamma    90.0

_space_group_name_H-M_alt    "P 1"
_space_group_IT_number       1

loop_
  _space_group_symop_operation_xyz
  'x, y, z'

loop_
  _atom_site_type_symbol
  _atom_site_label
  _atom_site_symmetry_multiplicity
  _atom_site_fract_x
  _atom_site_fract_y
  _atom_site_fract_z
  _atom_site_occupancy
  H   H1        1.0  0.25781628969239956  0.4233559915118488  0.4773416204055636  1.0000
  H   H2        1.0  0.7421837104704833  0.4233559915118488  0.02265837998612155  1.0000
  H   H3        1.0  0.7578162897048334  0.9233559918602082  0.47734162011162473  1.0000
  H   H4        1.0  0.2421837101606963  0.9233559918602082  0.02265837955663863  1.0000
  H   H5        1.0  0.7421837103136527  0.5766440091848702  0.5226583795185193  1.0000
  H   H6        1.0  0.25781628953556907  0.5766440091848702  0.9773416199379614  1.0000
  H   H7        1.0  0.24218371030121882  0.07664400883651068  0.5226583798124583  1.0000
  H   H8        1.0  0.7578162898453561  0.07664400883651068  0.9773416203674444  1.0000
  H   H9        1.0  0.16941786730254763  0.345614069488226  0.3051734905780802  1.0000
  H   H10       1.0  0.8305821325629822  0.345614069488226  0.1948265090901832  1.0000
  H   H11       1.0  0.6694178676123347  0.8456140698365855  0.30517349100756314  1.0000
  H   H12       1.0  0.33058213255054814  0.8456140698365855  0.19482650938412208  1.0000
  H   H13       1.0  0.830582132403644  0.6543859312084931  0.6948265093463244  1.0000
  H   H14       1.0  0.16941786744307014  0.6543859312084931  0.8051734908338999  1.0000
  H   H15       1.0  0.3305821326910707  0.15438593086013352  0.6948265096399417  1.0000
  H   H16       1.0  0.6694178674555041  0.15438593086013352  0.8051734905399608  1.0000
  H   H17       1.0  0.1468428765320046  0.633792358912085  0.17700024298239453  1.0000
  H   H18       1.0  0.8531571233335252  0.633792358912085  0.32299975668586883  1.0000
  H   H19       1.0  0.6468428765419308  0.13379235856372548  0.17700024341219894  1.0000
  H   H20       1.0  0.35315712362095186  0.13379235856372548  0.32299975697948624  1.0000
  H   H21       1.0  0.8531571234740477  0.36620763976229964  0.8229997569416885  1.0000
  H   H22       1.0  0.14684287667252707  0.36620763976229964  0.6770002432382142  1.0000
  H   H23       1.0  0.3531571234641214  0.8662076401106591  0.8229997565118841  1.0000
  H   H24       1.0  0.6468428763851004  0.8662076401106591  0.6770002429445968  1.0000
  H   H25       1.0  0.2126242671900661  0.0021669919309962597  0.2213781817892399  1.0000
  H   H26       1.0  0.7873757326754637  0.0021669919309962597  0.27862181787902346  1.0000
  H   H27       1.0  0.7126242671999925  0.5021669902570214  0.22137818221904434  1.0000
  H   H28       1.0  0.2873757329628904  0.5021669902570214  0.27862181817264087  1.0000
  H   H29       1.0  0.7873757328159862  0.9978330087657228  0.778621818134843  1.0000
  H   H30       1.0  0.212624267030728  0.9978330087657228  0.7213781820453812  1.0000
  H   H31       1.0  0.2873757328060599  0.4978330084173632  0.7786218177050387  1.0000
  H   H32       1.0  0.712624267043162  0.4978330084173632  0.7213781817514422  1.0000
  H   H33       1.0  0.3008741879006834  0.08267426608512021  0.3947078509039365  1.0000
  H   H34       1.0  0.6991258119648465  0.08267426608512021  0.10529214876432685  1.0000
  H   H35       1.0  0.8008741879131174  0.5826742664334797  0.39470785060999763  1.0000
  H   H36       1.0  0.19912581195241252  0.5826742664334797  0.10529214905826574  1.0000
  H   H37       1.0  0.6991258121053691  0.9173257325892644  0.6052921490201465  1.0000
  H   H38       1.0  0.3008741880412058  0.9173257325892644  0.8947078511597562  1.0000
  H   H39       1.0  0.19912581209293495  0.41732573426323927  0.6052921493140853  1.0000
  H   H40       1.0  0.8008741880536399  0.41732573426323927  0.8947078508658174  1.0000
  H   H41       1.0  0.444932130108437  0.7549049520652035  0.7189463839848821  1.0000
  H   H42       1.0  0.5550678700381376  0.7549049520652035  0.7810536161950206  1.0000
  H   H43       1.0  0.9449321298210105  0.2549049517168439  0.7189463836912647  1.0000
  H   H44       1.0  0.0550678700282114  0.2549049517168439  0.7810536157652161  1.0000
  H   H45       1.0  0.5550678698976153  0.24509504863151557  0.2810536159392009  1.0000
  H   H46       1.0  0.4449321299679146  0.24509504863151557  0.21894638372906247  1.0000
  H   H47       1.0  0.05506787018504189  0.7450950469575407  0.28105361623281827  1.0000
  H   H48       1.0  0.9449321299778408  0.7450950469575407  0.21894638415886686  1.0000
  H   H49       1.0  0.4336253104914245  0.4229712484678871  0.7392111190370628  1.0000
  H   H50       1.0  0.5663746896551504  0.4229712484678871  0.7607888811428398  1.0000
  H   H51       1.0  0.9336253102039977  0.9229712488162466  0.7392111187434455  1.0000
  H   H52       1.0  0.06637468964522399  0.9229712488162466  0.7607888807130354  1.0000
  H   H53       1.0  0.5663746895146279  0.5770287502064975  0.2607888808870202  1.0000
  H   H54       1.0  0.433625310350902  0.5770287502064975  0.23921111878124324  1.0000
  H   H55       1.0  0.06637468980205448  0.07702875188047235  0.26078888118063753  1.0000
  H   H56       1.0  0.9336253103608283  0.07702875188047235  0.23921111921104762  1.0000
  H   H57       1.0  0.4071659906969479  0.713345572566409  0.7517960317000327  1.0000
  H   H58       1.0  0.5928340094496268  0.713345572566409  0.7482039684798698  1.0000
  H   H59       1.0  0.9071659907068742  0.21334557424038383  0.7517960321298373  1.0000
  H   H60       1.0  0.09283400913983991  0.21334557424038383  0.7482039680503869  1.0000
  H   H61       1.0  0.5928340093091045  0.28665442610797565  0.24820396822405025  1.0000
  H   H62       1.0  0.4071659908537784  0.28665442610797565  0.2517960321676349  1.0000
  H   H63       1.0  0.0928340092966704  0.7866544264563351  0.24820396851798912  1.0000
  H   H64       1.0  0.9071659908662124  0.7866544264563351  0.25179603187369604  1.0000
  H   H65       1.0  0.3494342128174693  0.404326886960496  0.5824582208087603  1.0000
  H   H66       1.0  0.6505657873291055  0.404326886960496  0.9175417793711425  1.0000
  H   H67       1.0  0.8494342128273957  0.9043268873088555  0.5824582212385647  1.0000
  H   H68       1.0  0.15056578701931855  0.9043268873088555  0.9175417789416594  1.0000
  H   H69       1.0  0.650565787188583  0.595673113736223  0.4175417791153228  1.0000
  H   H70       1.0  0.3494342129742998  0.595673113736223  0.08245822127636243  1.0000
  H   H71       1.0  0.15056578717865673  0.09567311338786345  0.41754177868551834  1.0000
  H   H72       1.0  0.8494342126868731  0.09567311338786345  0.08245822098274505  1.0000
  C   C1        1.0  0.4726125250557584  0.3799794232553752  0.5244555652155535  1.0000
  C   C2        1.0  0.5273874750908164  0.3799794232553752  0.9755444349643491  1.0000
  C   C3        1.0  0.9726125250681923  0.8799794215814003  0.5244555649216146  1.0000
  C   C4        1.0  0.02738747478102946  0.8799794215814003  0.9755444345348663  1.0000
  C   C5        1.0  0.5273874749502939  0.6200205774413439  0.47554443470852953  1.0000
  C   C6        1.0  0.4726125249152359  0.6200205774413439  0.024455564959733857  1.0000
  C   C7        1.0  0.027387474937859892  0.12002057709298432  0.47554443500246835  1.0000
  C   C8        1.0  0.9726125252250228  0.12002057709298432  0.024455565389216772  1.0000
  C   C9        1.0  0.4463623200176123  0.5819344601245446  0.45410492962430693  1.0000
  C   C10       1.0  0.5536376798479175  0.5819344601245446  0.04589507004395646  1.0000
  C   C11       1.0  0.9463623200275386  0.08193445977618516  0.45410493005411134  1.0000
  C   C12       1.0  0.053637680135344215  0.08193445977618516  0.04589507033757385  1.0000
  C   C13       1.0  0.55363767998844  0.41806553854983997  0.5458950702997761  1.0000
  C   C14       1.0  0.44636231985827407  0.41806553854983997  0.954104929880448  1.0000
  C   C15       1.0  0.05363767997851376  0.9180655388981994  0.5458950698699717  1.0000
  C   C16       1.0  0.9463623198707081  0.9180655388981994  0.9541049295865093  1.0000
  C   C17       1.0  0.5266272324952511  0.30003444905687904  0.5694290875320611  1.0000
  C   C18       1.0  0.47337276705411  0.30003444905687904  0.9305709119247413  1.0000
  C   C19       1.0  0.026627232782677795  0.8000344494052385  0.5694290878256784  1.0000
  C   C20       1.0  0.973372767363897  0.8000344494052385  0.9305709123542242  1.0000
  C   C21       1.0  0.47337276751080115  0.69996555163984  0.4305709123920219  1.0000
  C   C22       1.0  0.5266272326520816  0.69996555163984  0.06942908799966324  1.0000
  C   C23       1.0  0.9733727672233745  0.19996555129148047  0.4305709120984046  1.0000
  C   C24       1.0  0.02662723264215535  0.19996555129148047  0.06942908756985881  1.0000
  C   C25       1.0  0.3383027548041982  0.8087416443487  0.5493592728671285  1.0000
  C   C26       1.0  0.6616972453423766  0.8087416443487  0.9506407273127742  1.0000
  C   C27       1.0  0.8383027545167715  0.30874164400034043  0.5493592725735111  1.0000
  C   C28       1.0  0.1616972453299426  0.30874164400034043  0.950640727606713  1.0000
  C   C29       1.0  0.6616972452018541  0.19125835634801905  0.4506407270569545  1.0000
  C   C30       1.0  0.33830275466367576  0.19125835634801905  0.04935927261130887  1.0000
  C   C31       1.0  0.1616972451894201  0.6912583566963786  0.45064072735089344  1.0000
  C   C32       1.0  0.8383027546761098  0.6912583566963786  0.04935927231736998  1.0000
  C   C33       1.0  0.2853174532176514  0.7554005453221444  0.44658025478223307  1.0000
  C   C34       1.0  0.7146825466478784  0.7554005453221444  0.05341974488603034  1.0000
  C   C35       1.0  0.7853174532275776  0.2554005449737849  0.4465802552120374  1.0000
  C   C36       1.0  0.21468254693530509  0.2554005449737849  0.05341974517964771  1.0000
  C   C37       1.0  0.7146825467884009  0.24459945537457461  0.55341974514185  1.0000
  C   C38       1.0  0.28531745335817393  0.24459945537457461  0.9465802550380528  1.0000
  C   C39       1.0  0.21468254677596693  0.7445994557229341  0.5534197454357889  1.0000
  C   C40       1.0  0.7853174530707473  0.7445994557229341  0.9465802547444352  1.0000
  C   C41       1.0  0.24816875141379813  0.5478232005350462  0.42105103720183407  1.0000
  C   C42       1.0  0.7518312484517317  0.5478232005350462  0.07894896246642925  1.0000
  C   C43       1.0  0.7481687517235852  0.0478232001866867  0.421051037631317  1.0000
  C   C44       1.0  0.25183124843929766  0.0478232001866867  0.07894896276036814  1.0000
  C   C45       1.0  0.7518312485922543  0.4521767981393384  0.578948962722249  1.0000
  C   C46       1.0  0.24816875155432058  0.4521767981393384  0.9210510374576537  1.0000
  C   C47       1.0  0.25183124828246717  0.9521767984876979  0.5789489622927659  1.0000
  C   C48       1.0  0.7481687512668941  0.9521767984876979  0.9210510371640364  1.0000
  C   C49       1.0  0.19835805434059575  0.5052979743718331  0.32448720028259015  1.0000
  C   C50       1.0  0.801641945524934  0.5052979743718331  0.17551279938567318  1.0000
  C   C51       1.0  0.6983580543530298  0.005297974023473625  0.3244871999886513  1.0000
  C   C52       1.0  0.3016419455125001  0.005297974023473625  0.17551279967961209  1.0000
  C   C53       1.0  0.8016419456654565  0.4947020263248859  0.6755127996414928  1.0000
  C   C54       1.0  0.19835805448111826  0.4947020263248859  0.8244872005384098  1.0000
  C   C55       1.0  0.30164194565302255  0.9947020266732454  0.6755127999354318  1.0000
  C   C56       1.0  0.6983580544935523  0.9947020266732454  0.824487200244471  1.0000
  C   C57       1.0  0.1856352309290153  0.6683521338370834  0.25260267866247627  1.0000
  C   C58       1.0  0.8143647692338676  0.6683521338370834  0.2473973217292089  1.0000
  C   C59       1.0  0.6856352309414493  0.16835213348872394  0.2526026783685374  1.0000
  C   C60       1.0  0.31436476892408055  0.16835213348872394  0.24739732129972603  1.0000
  C   C61       1.0  0.81436476937439  0.3316478668596356  0.7473973219850285  1.0000
  C   C62       1.0  0.18563523077218477  0.3316478668596356  0.752602678194874  1.0000
  C   C63       1.0  0.31436476906460303  0.8316478651856608  0.7473973215555456  1.0000
  C   C64       1.0  0.6856352310819717  0.8316478651856608  0.752602678624357  1.0000
  C   C65       1.0  0.22257350826704367  0.8749055970307887  0.27746953370087973  1.0000
  C   C66       1.0  0.7774264915984862  0.8749055970307887  0.22253046596738363  1.0000
  C   C67       1.0  0.7225735082794776  0.37490559668242923  0.2774695334069409  1.0000
  C   C68       1.0  0.27742649158605215  0.37490559668242923  0.22253046626132247  1.0000
  C   C69       1.0  0.7774264917390087  0.1250944036659303  0.7225304662232033  1.0000
  C   C70       1.0  0.2225735084075662  0.1250944036659303  0.7774695339566995  1.0000
  C   C71       1.0  0.2774264917265747  0.6250944040142898  0.7225304665171423  1.0000
  C   C72       1.0  0.7225735084200001  0.6250944040142898  0.7774695336627604  1.0000
  C   C73       1.0  0.2720495461489181  0.9200980536839515  0.37418129074580087  1.0000
  C   C74       1.0  0.7279504540139647  0.9200980536839515  0.12581870964588435  1.0000
  C   C75       1.0  0.772049546161352  0.4200980533355921  0.3741812904518619  1.0000
  C   C76       1.0  0.2279504537041778  0.4200980533355921  0.12581870921640143  1.0000
  C   C77       1.0  0.7279504538546266  0.07990194701276745  0.6258187099020255  1.0000
  C   C78       1.0  0.2720495459920875  0.07990194701276745  0.8741812902781987  1.0000
  C   C79       1.0  0.22795045384470033  0.5799019453387926  0.6258187094722212  1.0000
  C   C80       1.0  0.7720495463018746  0.5799019453387926  0.8741812907076816  1.0000
  C   C81       1.0  0.41516441153545847  0.6240983274959384  0.7107166757669472  1.0000
  C   C82       1.0  0.5848355886111163  0.6240983274959384  0.7892833244129555  1.0000
  C   C83       1.0  0.9151644115478924  0.12409832916991327  0.7107166754730082  1.0000
  C   C84       1.0  0.0848355885986823  0.12409832916991327  0.7892833247068943  1.0000
  C   C85       1.0  0.5848355887679468  0.3759016711784462  0.28928332488055764  1.0000
  C   C86       1.0  0.41516441139493604  0.3759016711784462  0.21071667551112755  1.0000
  C   C87       1.0  0.08483558845815982  0.8759016715268056  0.2892833244510747  1.0000
  C   C88       1.0  0.9151644114073699  0.8759016715268056  0.21071667521718868  1.0000
  N   N1        1.0  0.3630057655664392  0.596904327069985  0.6095658369393652  1.0000
  N   N2        1.0  0.6369942342827826  0.596904327069985  0.8904341625171155  1.0000
  N   N3        1.0  0.8630057655763657  0.09690432672162543  0.6095658373691697  1.0000
  N   N4        1.0  0.13699423457020926  0.09690432672162543  0.8904341628107331  1.0000
  N   N5        1.0  0.6369942344396131  0.4030956716043997  0.39043416298471784  1.0000
  N   N6        1.0  0.3630057657232697  0.4030956716043997  0.10956583740696735  1.0000
  N   N7        1.0  0.13699423442968678  0.9030956719527592  0.3904341625549134  1.0000
  N   N8        1.0  0.8630057654358431  0.9030956719527592  0.10956583711334997  1.0000
  O   O1        1.0  0.3593769977931929  0.04336362936127284  0.5783694728207623  1.0000
  O   O2        1.0  0.6406230023533819  0.04336362936127284  0.9216305273591402  1.0000
  O   O3        1.0  0.85937699810298  0.5433636297096324  0.5783694732502453  1.0000
  O   O4        1.0  0.14062300204359493  0.5433636297096324  0.9216305269296573  1.0000
  O   O5        1.0  0.6406230022128593  0.9566363693131118  0.42163052710332055  1.0000
  O   O6        1.0  0.3593769979500235  0.9566363693131118  0.0783694732883646  1.0000
  O   O7        1.0  0.1406230019030724  0.45663636896475235  0.42163052667383766  1.0000
  O   O8        1.0  0.8593769979624574  0.45663636896475235  0.0783694729944257  1.0000
  F   F1        1.0  0.39363582410742637  0.6663783355069831  0.4067815007946302  1.0000
  F   F2        1.0  0.6063641757581034  0.6663783355069831  0.09321849887363319  1.0000
  F   F3        1.0  0.8936358244172133  0.16637833515862363  0.40678150122411305  1.0000
  F   F4        1.0  0.10636417574566948  0.16637833515862363  0.09321849916757208  1.0000
  F   F5        1.0  0.6063641758986258  0.33362166518973585  0.5932184991294527  1.0000
  F   F6        1.0  0.3936358242479489  0.33362166518973585  0.9067815010504499  1.0000
  F   F7        1.0  0.10636417558883896  0.8336216655380954  0.5932184986999699  1.0000
  F   F8        1.0  0.893635824260383  0.8336216655380954  0.906781500756511  1.0000
  F   F9        1.0  0.5541785250827712  0.10378736798789036  0.6380362105975622  1.0000
  F   F10       1.0  0.4458214750638036  0.10378736798789036  0.8619637895823404  1.0000
  F   F11       1.0  0.05417852477298427  0.6037873683362499  0.6380362101680793  1.0000
  F   F12       1.0  0.9458214747763769  0.6037873683362499  0.8619637892887231  1.0000
  F   F13       1.0  0.4458214749232811  0.8962126327088286  0.36196378932652074  1.0000
  F   F14       1.0  0.5541785249422486  0.8962126327088286  0.1380362103417426  1.0000
  F   F15       1.0  0.9458214749332075  0.3962126323604691  0.3619637897563252  1.0000
  F   F16       1.0  0.05417852522967539  0.3962126323604691  0.13803621063535998  1.0000
  I   I1        1.0  0.4315060897127629  0.21116295168716082  0.5597922596786984  1.0000
  I   I2        1.0  0.5684939104338119  0.21116295168716082  0.9402077405012043  1.0000
  I   I3        1.0  0.9315060894253362  0.7111629520355203  0.559792259385081  1.0000
  I   I4        1.0  0.06849391072123857  0.7111629520355203  0.9402077407948216  1.0000
  I   I5        1.0  0.5684939102932894  0.7888370469872239  0.44020774024538456  1.0000
  I   I6        1.0  0.43150608957224046  0.7888370469872239  0.059792259422878795  1.0000
  I   I7        1.0  0.06849391058071606  0.28883704663886434  0.44020774053900197  1.0000
  I   I8        1.0  0.9315060895821667  0.28883704663886434  0.059792259852683216  1.0000
