data_image0
_chemical_formula_structural       H56C56N4O16Br8
_chemical_formula_sum              "H56 C56 N4 O16 Br8"
_cell_length_a       36.722325132783304
_cell_length_b       3.872439421144975
_cell_length_c       10.68879169563937
_cell_angle_alpha    90.0
_cell_angle_beta     93.17596501361149
_cell_angle_gamma    90.0

_space_group_name_H-M_alt    "P 1"
_space_group_IT_number       1

loop_
  _space_group_symop_operation_xyz
  'x, y, z'

loop_
  _atom_site_type_symbol
  _atom_site_label
  _atom_site_symmetry_multiplicity
  _atom_site_fract_x
  _atom_site_fract_y
  _atom_site_fract_z
  _atom_site_occupancy
  H   H1        1.0  0.5966423942952771  0.02516059501614921  0.29907117586062715  1.0000
  H   H2        1.0  0.4033576057137494  0.02516059501614921  0.2009288241579406  1.0000
  H   H3        1.0  0.09664239427439732  0.5251605948683128  0.29907117672234673  1.0000
  H   H4        1.0  0.9033576057346291  0.5251605948683128  0.200928823296221  1.0000
  H   H5        1.0  0.40335760591164027  0.974839404688178  0.7009288240072244  1.0000
  H   H6        1.0  0.5966423942418815  0.974839404688178  0.7990711766658306  1.0000
  H   H7        1.0  0.9033576059531824  0.4748394048360144  0.7009288240823085  1.0000
  H   H8        1.0  0.09664239420033918  0.4748394048360144  0.7990711765907466  1.0000
  H   H9        1.0  0.622882267358047  0.5466912815834449  0.6564977180281225  1.0000
  H   H10       1.0  0.3771177327748123  0.5466912815834449  0.8435022817081289  1.0000
  H   H11       1.0  0.12288226733716712  0.04669128173128132  0.6564977188898422  1.0000
  H   H12       1.0  0.8771177325444057  0.04669128173128132  0.843502281802329  1.0000
  H   H13       1.0  0.3771177325769215  0.45330871812088225  0.34350228185884507  1.0000
  H   H14       1.0  0.6228822674321051  0.45330871812088225  0.15649771815972263  1.0000
  H   H15       1.0  0.8771177326184638  0.953308717973046  0.343502281933929  1.0000
  H   H16       1.0  0.12288226739056272  0.953308717973046  0.15649771808463872  1.0000
  H   H17       1.0  0.6605686326871729  0.939366366879007  0.24040535439549654  1.0000
  H   H18       1.0  0.3394313673218537  0.939366366879007  0.2595946456230712  1.0000
  H   H19       1.0  0.16056863264563048  0.43936636702684334  0.24040535432041257  1.0000
  H   H20       1.0  0.8394313673633961  0.43936636702684334  0.25959464569815516  1.0000
  H   H21       1.0  0.33943136724779555  0.06063363282532022  0.759594645491471  1.0000
  H   H22       1.0  0.6605686326131147  0.06063363282532022  0.7404053542638964  1.0000
  H   H23       1.0  0.8394313672893379  0.5606336326774838  0.7595946455665551  1.0000
  H   H24       1.0  0.1605686328435213  0.5606336326774838  0.7404053541696966  1.0000
  H   H25       1.0  0.6870068387224821  0.453313725300567  0.5968533173716281  1.0000
  H   H26       1.0  0.3129931611590906  0.453313725300567  0.903146683320543  1.0000
  H   H27       1.0  0.1870068386809398  0.9533137251527306  0.5968533172965441  1.0000
  H   H28       1.0  0.8129931612006329  0.9533137251527306  0.9031466833956269  1.0000
  H   H29       1.0  0.31299316123314874  0.5466862769861117  0.40314668345214316  1.0000
  H   H30       1.0  0.6870068387758778  0.5466862769861117  0.09685331656642461  1.0000
  H   H31       1.0  0.8129931612540287  0.04668627455159657  0.4031466825904236  1.0000
  H   H32       1.0  0.18700683873433546  0.04668627455159657  0.09685331649134067  1.0000
  H   H33       1.0  0.4881510116919648  0.015357670845736781  0.5183740109313154  1.0000
  H   H34       1.0  0.511848988189608  0.015357670845736781  0.9816259897608556  1.0000
  H   H35       1.0  0.988151011733507  0.5153576706979004  0.5183740110063993  1.0000
  H   H36       1.0  0.01184898814806568  0.5153576706979004  0.9816259896857716  1.0000
  H   H37       1.0  0.5118489882430036  0.9846423288585905  0.4816259889556522  1.0000
  H   H38       1.0  0.48815101174536035  0.9846423288585905  0.018374010126111968  1.0000
  H   H39       1.0  0.011848988222123817  0.4846423290064268  0.48162598981737187  1.0000
  H   H40       1.0  0.9881510117869027  0.4846423290064268  0.018374010201195907  1.0000
  H   H41       1.0  0.5179775302829884  0.6286333510364458  0.6990148526786784  1.0000
  H   H42       1.0  0.48202246984987074  0.6286333510364458  0.8009851470575732  1.0000
  H   H43       1.0  0.017977530241446132  0.12863335118428218  0.6990148526035945  1.0000
  H   H44       1.0  0.9820224698914131  0.12863335118428218  0.8009851471326569  1.0000
  H   H45       1.0  0.48202246992392883  0.3713666486678814  0.3009851471891732  1.0000
  H   H46       1.0  0.5179775300850976  0.3713666486678814  0.19901485282939455  1.0000
  H   H47       1.0  0.9820224699654713  0.8713666485200451  0.3009851472642571  1.0000
  H   H48       1.0  0.017977530043555297  0.8713666485200451  0.1990148527543106  1.0000
  H   H49       1.0  0.48407258605034065  0.3294827320043009  0.6887740774095533  1.0000
  H   H50       1.0  0.5159274138105697  0.3294827320043009  0.8112259223458143  1.0000
  H   H51       1.0  0.9840725860918829  0.8294827318564645  0.6887740774846373  1.0000
  H   H52       1.0  0.015927413789689898  0.8294827318564645  0.8112259232075338  1.0000
  H   H53       1.0  0.5159274138846278  0.6705172677000263  0.31122592247741426  1.0000
  H   H54       1.0  0.48407258612439863  0.6705172677000263  0.18877407754115347  1.0000
  H   H55       1.0  0.0159274138430855  0.17051726784786267  0.3112259224023303  1.0000
  H   H56       1.0  0.984072586165941  0.17051726784786267  0.18877407761623743  1.0000
  C   C1        1.0  0.6057847612560486  0.788599538400803  0.4816297221380334  1.0000
  C   C2        1.0  0.3942152387529778  0.788599538400803  0.018370277880534348  1.0000
  C   C3        1.0  0.10578476148645538  0.2885995385486394  0.4816297220438335  1.0000
  C   C4        1.0  0.8942152385225711  0.2885995385486394  0.018370277974734266  1.0000
  C   C5        1.0  0.39421523867891967  0.21140046130352422  0.5183702777489342  1.0000
  C   C6        1.0  0.6057847614539396  0.21140046130352422  0.9816297219873173  1.0000
  C   C7        1.0  0.8942152387204619  0.7114004611556878  0.5183702778240182  1.0000
  C   C8        1.0  0.10578476141239725  0.7114004611556878  0.9816297219122333  1.0000
  C   C9        1.0  0.6163970645029515  0.9005680427064943  0.3643788995543726  1.0000
  C   C10       1.0  0.383602935506075  0.9005680427064943  0.13562110046419515  1.0000
  C   C11       1.0  0.1163970644614092  0.40056804285433073  0.36437889947928864  1.0000
  C   C12       1.0  0.8836029355476173  0.40056804285433073  0.13562110053927912  1.0000
  C   C13       1.0  0.3836029354320169  0.09943195699783287  0.635621100332595  1.0000
  C   C14       1.0  0.6163970644288933  0.09943195699783287  0.8643788994227726  1.0000
  C   C15       1.0  0.8836029354735592  0.5994319568499965  0.635621100407679  1.0000
  C   C16       1.0  0.11639706438735105  0.5994319568499965  0.8643788993476885  1.0000
  C   C17       1.0  0.56725891179948  0.8269073552229286  0.5175666229336368  1.0000
  C   C18       1.0  0.4327410883333793  0.8269073552229286  0.9824333768026148  1.0000
  C   C19       1.0  0.06725891175793759  0.32690735537076504  0.5175666228585528  1.0000
  C   C20       1.0  0.9327410883749215  0.32690735537076504  0.9824333768776985  1.0000
  C   C21       1.0  0.43274108813548845  0.17309264448139855  0.48243337695333083  1.0000
  C   C22       1.0  0.567258911873538  0.17309264448139855  0.01756662306523689  1.0000
  C   C23       1.0  0.9327410881770307  0.6730926443335621  0.4824333770284148  1.0000
  C   C24       1.0  0.06725891183199571  0.6730926443335621  0.01756662299015295  1.0000
  C   C25       1.0  0.6767574015098045  0.6794560853897206  0.41328861141489925  1.0000
  C   C26       1.0  0.3232425984992221  0.6794560853897206  0.0867113886036685  1.0000
  C   C27       1.0  0.1767574014682621  0.1794560855375569  0.4132886113398153  1.0000
  C   C28       1.0  0.8232425985407644  0.1794560855375569  0.08671138867875244  1.0000
  C   C29       1.0  0.3232425984458265  0.3205439143146067  0.5867113894088719  1.0000
  C   C30       1.0  0.6767574017076953  0.3205439143146067  0.913288611264183  1.0000
  C   C31       1.0  0.8232425984667062  0.8205439141667703  0.5867113885471523  1.0000
  C   C32       1.0  0.17675740166615292  0.8205439141667703  0.9132886111890991  1.0000
  C   C33       1.0  0.631403667664332  0.6317449942901026  0.5655159622193782  1.0000
  C   C34       1.0  0.36859633221724075  0.6317449942901026  0.934484038472793  1.0000
  C   C35       1.0  0.13140366789473867  0.13174499443793888  0.5655159621251782  1.0000
  C   C36       1.0  0.8685963322587831  0.13174499443793888  0.9344840385478768  1.0000
  C   C37       1.0  0.3685963322706364  0.3682550054142247  0.43448403766758953  1.0000
  C   C38       1.0  0.6314036677383902  0.3682550054142247  0.06551596235097822  1.0000
  C   C39       1.0  0.8685963323121787  0.8682550052663883  0.4344840377426734  1.0000
  C   C40       1.0  0.13140366769684783  0.8682550052663883  0.06551596227589429  1.0000
  C   C41       1.0  0.6520567238014203  0.8493026571420373  0.33067236641830866  1.0000
  C   C42       1.0  0.3479432761869437  0.8493026571420373  0.16932763266345552  1.0000
  C   C43       1.0  0.15205672378054047  0.3493026572898737  0.3306723672800283  1.0000
  C   C44       1.0  0.8479432762284861  0.3493026572898737  0.16932763273853946  1.0000
  C   C45       1.0  0.3479432761335481  0.15069734514464148  0.669327633468659  1.0000
  C   C46       1.0  0.6520567237480247  0.15069734514464148  0.830672367223512  1.0000
  C   C47       1.0  0.8479432761750904  0.6506973449968051  0.6693276335437429  1.0000
  C   C48       1.0  0.15205672370648232  0.6506973449968051  0.8306723671484282  1.0000
  C   C49       1.0  0.6670740352893079  0.5766648660290038  0.5322069285061861  1.0000
  C   C50       1.0  0.33292596486421394  0.5766648660290038  0.967793072166869  1.0000
  C   C51       1.0  0.16707403524776548  0.0766648661768402  0.5322069284311022  1.0000
  C   C52       1.0  0.8329259648850937  0.0766648661768402  0.9677930713051492  1.0000
  C   C53       1.0  0.33292596491760956  0.42333513367532344  0.4677930713616655  1.0000
  C   C54       1.0  0.667074035091417  0.42333513367532344  0.03220692865690222  1.0000
  C   C55       1.0  0.8329259646872029  0.9233351335274871  0.46779307145586546  1.0000
  C   C56       1.0  0.16707403504987464  0.9233351335274871  0.032206928581818284  1.0000
  N   N1        1.0  0.49999999994078637  0.48163555763218097  0.7500000003460856  1.0000
  N   N2        1.0  0.999999999899244  0.9816355574843446  0.7500000002710017  1.0000
  N   N3        1.0  0.49999999999418193  0.5183644420721463  0.24999999954088212  1.0000
  N   N4        1.0  0.9999999999733022  0.018364442219982662  0.25000000040260173  1.0000
  O   O1        1.0  0.5445261056010383  0.9315726284320731  0.42602738099558884  1.0000
  O   O2        1.0  0.45547389440798813  0.9315726284320731  0.07397261902297894  1.0000
  O   O3        1.0  0.044526105831444965  0.4315726285799095  0.42602738090138886  1.0000
  O   O4        1.0  0.9554738941775816  0.4315726285799095  0.07397261911717887  1.0000
  O   O5        1.0  0.45547389433393004  0.06842737127225411  0.5739726188913788  1.0000
  O   O6        1.0  0.5445261057989291  0.06842737127225411  0.9260273808448726  1.0000
  O   O7        1.0  0.9554738943754724  0.5684273711244178  0.5739726189664628  1.0000
  O   O8        1.0  0.04452610575738683  0.5684273711244178  0.9260273807697889  1.0000
  O   O9        1.0  0.5584802600767533  0.7618098152527708  0.6263079929029615  1.0000
  O   O10       1.0  0.4415197400561059  0.7618098152527708  0.87369200683329  1.0000
  O   O11       1.0  0.05848026003521105  0.26180981540060716  0.6263079928278774  1.0000
  O   O12       1.0  0.9415197400976482  0.26180981540060716  0.873692006908374  1.0000
  O   O13       1.0  0.441519740130164  0.23819018445155643  0.37369200696489024  1.0000
  O   O14       1.0  0.5584802598788625  0.23819018445155643  0.12630799305367754  1.0000
  O   O15       1.0  0.9415197401717063  0.7381901843037201  0.3736920070399742  1.0000
  O   O16       1.0  0.05848025983732022  0.7381901843037201  0.12630799297859358  1.0000
  Br  Br1       1.0  0.7235056553140812  0.5681558471867523  0.3575371532679314  1.0000
  Br  Br2       1.0  0.2764943446949453  0.5681558471867523  0.14246284675063636  1.0000
  Br  Br3       1.0  0.22350565529320143  0.06815584733458871  0.357537154129651  1.0000
  Br  Br4       1.0  0.7764943447158251  0.06815584733458871  0.14246284588891672  1.0000
  Br  Br5       1.0  0.27649434489283614  0.4318441525175749  0.6424628465999203  1.0000
  Br  Br6       1.0  0.7235056552606857  0.4318441525175749  0.8575371540731347  1.0000
  Br  Br7       1.0  0.7764943446624295  0.9318441523697385  0.6424628466941202  1.0000
  Br  Br8       1.0  0.22350565521914334  0.9318441523697385  0.8575371539980509  1.0000
