data_image0
_chemical_formula_structural       H104B4C64N4O20F16
_chemical_formula_sum              "H104 B4 C64 N4 O20 F16"
_cell_length_a       8.559363128017589
_cell_length_b       13.977310624501028
_cell_length_c       15.625553369153202
_cell_angle_alpha    90.0
_cell_angle_beta     98.0002312485428
_cell_angle_gamma    90.0

_space_group_name_H-M_alt    "P 1"
_space_group_IT_number       1

loop_
  _space_group_symop_operation_xyz
  'x, y, z'

loop_
  _atom_site_type_symbol
  _atom_site_label
  _atom_site_symmetry_multiplicity
  _atom_site_fract_x
  _atom_site_fract_y
  _atom_site_fract_z
  _atom_site_occupancy
  H   H1        1.0  0.9609455727632717  0.05070402304415409  0.13280123963315618  1.0000
  H   H2        1.0  0.5390544270168843  0.5507040228831421  0.36719876046105765  1.0000
  H   H3        1.0  0.03905442670837814  0.949295976633822  0.8671987606247907  1.0000
  H   H4        1.0  0.4609455736226446  0.44929597679483396  0.6328012397952042  1.0000
  H   H5        1.0  0.9945265165695014  0.0469204332377361  0.24822668876276785  1.0000
  H   H6        1.0  0.5054734832106548  0.5469204330767241  0.25177331133144604  1.0000
  H   H7        1.0  0.005473482734902426  0.9530795671556852  0.7517733108489141  1.0000
  H   H8        1.0  0.49452651742887427  0.4530795666012519  0.7482266889248157  1.0000
  H   H9        1.0  0.26634834638701027  0.11589052955298589  0.244433597716908  1.0000
  H   H10       1.0  0.23365165318156855  0.6158905293919739  0.2555664017658006  1.0000
  H   H11       1.0  0.7336516540852726  0.8841094708404355  0.755566401893089  1.0000
  H   H12       1.0  0.7663483461228353  0.3841094710014474  0.7444335978458815  1.0000
  H   H13       1.0  0.24135857136596325  0.0035661724446922646  0.19301265314017846  1.0000
  H   H14       1.0  0.25864142836986165  0.5035661722836803  0.306987346988795  1.0000
  H   H15       1.0  0.7586414281056867  0.9964338279487289  0.8069873471177685  1.0000
  H   H16       1.0  0.7413585711017882  0.49643382739429576  0.693012653269152  1.0000
  H   H17       1.0  0.15516556964134715  0.0033673087237181  0.0418466405204058  1.0000
  H   H18       1.0  0.3448344299272317  0.5033673085627062  0.45815335896230275  1.0000
  H   H19       1.0  0.8448344296630567  0.9966326909542579  0.9581533590912763  1.0000
  H   H20       1.0  0.6551655705450512  0.4966326911152699  0.5418466406476942  1.0000
  H   H21       1.0  0.36285292059663216  0.0233704107160215  0.04891987350602063  1.0000
  H   H22       1.0  0.13714707913919272  0.5233704105550095  0.4510801266229528  1.0000
  H   H23       1.0  0.6371470788750178  0.9766295896773998  0.9510801267519264  1.0000
  H   H24       1.0  0.8628529213330901  0.47662958912296655  0.548919872987044  1.0000
  H   H25       1.0  0.29135479913569096  0.17906981516262543  0.9620326384183173  1.0000
  H   H26       1.0  0.20864520102808568  0.6790698150016133  0.5379673613554127  1.0000
  H   H27       1.0  0.708645201503838  0.8209301852307958  0.03796736183794447  1.0000
  H   H28       1.0  0.7913547994441971  0.3209301853918078  0.4620326382545842  1.0000
  H   H29       1.0  0.2620283445808506  0.06873761811631042  0.906166454524951  1.0000
  H   H30       1.0  0.2379716557501722  0.5687376179552984  0.593833545895044  1.0000
  H   H31       1.0  0.7379716560586784  0.9312623815616656  0.09383354573131086  1.0000
  H   H32       1.0  0.7620283448893568  0.4312623817226776  0.40616645436121784  1.0000
  H   H33       1.0  0.053996143967123454  0.1396006765836369  0.801261509773768  1.0000
  H   H34       1.0  0.4460038561966533  0.639600676422625  0.6987384899999621  1.0000
  H   H35       1.0  0.9460038565051594  0.8603993238097843  0.19873848983622897  1.0000
  H   H36       1.0  0.5539961431077506  0.3603993232553511  0.30126150961171994  1.0000
  H   H37       1.0  0.10384939138383024  0.24946638689475903  0.8557612682473025  1.0000
  H   H38       1.0  0.39615060877994634  0.7494663867337471  0.6442387315264275  1.0000
  H   H39       1.0  0.8961506079205734  0.750533612783217  0.14423873136437954  1.0000
  H   H40       1.0  0.6038493916923364  0.250533612944229  0.3557612680835694  1.0000
  H   H41       1.0  0.8217312266113865  0.24088356125520347  0.774803635110644  1.0000
  H   H42       1.0  0.6782687737639673  0.7408835610941915  0.7251963652745913  1.0000
  H   H43       1.0  0.17826877402814237  0.7591164384227725  0.22519636514561775  1.0000
  H   H44       1.0  0.3217312257076825  0.2591164385837845  0.2748036349833557  1.0000
  H   H45       1.0  0.7806563343205591  0.15312015504959864  0.8511520047978772  1.0000
  H   H46       1.0  0.7193436660547947  0.6531201548885865  0.6488479955873582  1.0000
  H   H47       1.0  0.21934366631896987  0.8468798453438225  0.14884799545838465  1.0000
  H   H48       1.0  0.28065633458473416  0.3468798447893894  0.3511520046689037  1.0000
  H   H49       1.0  0.5922860306590291  0.29170412460126266  0.854236197487747  1.0000
  H   H50       1.0  0.9077139683811996  0.7917041251556959  0.6457638022529084  1.0000
  H   H51       1.0  0.4077139686453746  0.7082958750767133  0.14576380212393494  1.0000
  H   H52       1.0  0.09228603092320418  0.2082958752377254  0.3542361973587736  1.0000
  H   H53       1.0  0.663236122220528  0.3738114141100388  0.9384197101941395  1.0000
  H   H54       1.0  0.8367638781548259  0.8738114139490268  0.5615802901910958  1.0000
  H   H55       1.0  0.33676387841900096  0.6261885862833824  0.061580290062122296  1.0000
  H   H56       1.0  0.1632361213168239  0.12618858572894917  0.4384197100668512  1.0000
  H   H57       1.0  0.504490107446811  0.23890943470530537  0.9887550368686508  1.0000
  H   H58       1.0  0.995509892928543  0.7389094345442935  0.5112449635165845  1.0000
  H   H59       1.0  0.4955098920248388  0.7610905656881158  0.011244963389296168  1.0000
  H   H60       1.0  0.004490107710986073  0.2610905658491278  0.48875503673967735  1.0000
  H   H61       1.0  0.6480204241583731  0.155871953377138  0.9620982716159361  1.0000
  H   H62       1.0  0.8519795750491017  0.6558719532161261  0.5379017287709843  1.0000
  H   H63       1.0  0.3519795753132768  0.844128046300838  0.03790172864201082  1.0000
  H   H64       1.0  0.14802042442254823  0.34412804646185  0.4620982714869627  1.0000
  H   H65       1.0  0.7180867309284313  0.10827052933539737  0.10219369826562397  1.0000
  H   H66       1.0  0.7819132700196038  0.6082705291743854  0.39780630182690474  1.0000
  H   H67       1.0  0.2819132697110976  0.8917294703425787  0.8978063019906378  1.0000
  H   H68       1.0  0.21808673061992515  0.39172947050359064  0.6021936984293571  1.0000
  H   H69       1.0  0.5852124194751301  0.18592309349158292  0.14510373870320734  1.0000
  H   H70       1.0  0.9147875803050259  0.6859230933305709  0.35489626139100655  1.0000
  H   H71       1.0  0.41478758116439884  0.8140769069018384  0.8548962615530544  1.0000
  H   H72       1.0  0.0852124191666239  0.31407690706285035  0.6451037388669405  1.0000
  H   H73       1.0  0.8178407028549668  0.2752162360373475  0.22608877680442938  1.0000
  H   H74       1.0  0.6821592969251893  0.7752162358763355  0.27391122328978446  1.0000
  H   H75       1.0  0.1821592966166831  0.7247837643560737  0.7739112234535176  1.0000
  H   H76       1.0  0.31784070254646063  0.22478376451708573  0.7260887769681625  1.0000
  H   H77       1.0  0.7941308520503788  0.15373925769620017  0.259473412161294  1.0000
  H   H78       1.0  0.7058691477297773  0.6537392575351881  0.24052658793291987  1.0000
  H   H79       1.0  0.20586914742127108  0.8462607426972211  0.740526588096653  1.0000
  H   H80       1.0  0.2941308515746265  0.34626074285823305  0.7594734116787623  1.0000
  H   H81       1.0  0.05630930939980523  0.25780820193574533  0.10742294242318126  1.0000
  H   H82       1.0  0.4436906915038988  0.7578082024901786  0.39257705770410706  1.0000
  H   H83       1.0  0.9436906912397237  0.7421917977422307  0.8925770578330806  1.0000
  H   H84       1.0  0.5563093091356301  0.2421917979032427  0.6074229425521548  1.0000
  H   H85       1.0  0.9607800407951416  0.293338790998384  0.005505368664218634  1.0000
  H   H86       1.0  0.5392199601528938  0.793338790837372  0.49449463142831007  1.0000
  H   H87       1.0  0.03921995967714143  0.7066612093950372  0.9944946309457783  1.0000
  H   H88       1.0  0.46078004048663523  0.20666120884060396  0.5055053688279517  1.0000
  H   H89       1.0  0.3250879556922186  0.31433979955330976  0.15890319552350474  1.0000
  H   H90       1.0  0.17491204404360636  0.8143397993922977  0.34109680460546876  1.0000
  H   H91       1.0  0.6749120436121853  0.6856602008401115  0.8410968040881773  1.0000
  H   H92       1.0  0.8250879565959226  0.18566020028567828  0.658903195650793  1.0000
  H   H93       1.0  0.5490692125864213  0.41373894487706164  0.1326095943686692  1.0000
  H   H94       1.0  0.9509307883616138  0.9137389447160497  0.3673904057238595  1.0000
  H   H95       1.0  0.45093078788586155  0.5862610555163595  0.8673904052413276  1.0000
  H   H96       1.0  0.049069212277915115  0.08626105567737155  0.6326095945324023  1.0000
  H   H97       1.0  0.27731708420992673  0.5130853575958225  0.8912251522503211  1.0000
  H   H98       1.0  0.22268291595384992  0.013085357041389299  0.608774847523409  1.0000
  H   H99       1.0  0.722682915094477  0.4869146427975987  0.10877484736136103  1.0000
  H   H100      1.0  0.7773170846856791  0.9869146426365867  0.3912251527328528  1.0000
  H   H101      1.0  0.057918468618750184  0.41262620434937125  0.9176837140675866  1.0000
  H   H102      1.0  0.4420815305443934  0.9126262041883593  0.5823162863540934  1.0000
  H   H103      1.0  0.9420815308528997  0.5873737960440499  0.08231628619036035  1.0000
  H   H104      1.0  0.5579184689272564  0.08737379620506194  0.4176837139038535  1.0000
  B   B1        1.0  0.5670793357804621  0.962691743175047  0.2465670671207214  1.0000
  B   B2        1.0  0.932920663999694  0.462691743336059  0.2534329329734925  1.0000
  B   B3        1.0  0.4329206636911877  0.03730825650292906  0.7534329331372256  1.0000
  B   B4        1.0  0.06707933647258899  0.5373082570573623  0.7465670666365045  1.0000
  C   C1        1.0  0.026175200877160645  0.08459914011835967  0.1908366456594737  1.0000
  C   C2        1.0  0.4738247988586643  0.5845991399573477  0.3091633544694998  1.0000
  C   C3        1.0  0.9738247985944892  0.9154008595596164  0.8091633545984733  1.0000
  C   C4        1.0  0.5261752006129856  0.4154008597206283  0.6908366457884473  1.0000
  C   C5        1.0  0.20184512837731994  0.07852347418509066  0.1886682650789685  1.0000
  C   C6        1.0  0.298154871358505  0.5785234740240787  0.31133173505000505  1.0000
  C   C7        1.0  0.7981548710943299  0.9214765254928853  0.8113317351789784  1.0000
  C   C8        1.0  0.7018451292810239  0.4214765256538973  0.6886682652062568  1.0000
  C   C9        1.0  0.24681019607413146  0.05900069993110278  0.0417697394872281  1.0000
  C   C10       1.0  0.2531898034944474  0.5590006997700908  0.4582302599954805  1.0000
  C   C11       1.0  0.7531898032302723  0.9409992997468732  0.9582302601244539  1.0000
  C   C12       1.0  0.7468101969778355  0.4409992999078852  0.5417697396145164  1.0000
  C   C13       1.0  0.2208241071773895  0.11247719695405445  0.957312010042843  1.0000
  C   C14       1.0  0.2791758918185081  0.6124771967930425  0.5426879897325722  1.0000
  C   C15       1.0  0.7791758921270143  0.8875228034393667  0.04268798956883904  1.0000
  C   C16       1.0  0.7208241074858956  0.38752280288493357  0.4573120098791099  1.0000
  C   C17       1.0  0.027350869590362818  0.1855183289305033  0.8549041576531115  1.0000
  C   C18       1.0  0.47264913057341384  0.6855183287694913  0.6450958421206187  1.0000
  C   C19       1.0  0.9726491310491661  0.814481671462918  0.14509584260315045  1.0000
  C   C20       1.0  0.52735086873099  0.31448167162393  0.35490415749106347  1.0000
  C   C21       1.0  0.8564276861152635  0.21466140809238185  0.8412337691664724  1.0000
  C   C22       1.0  0.6435723129249651  0.7146614079313698  0.658766230574183  1.0000
  C   C23       1.0  0.14357231318914018  0.7853385915855942  0.1587662304452096  1.0000
  C   C24       1.0  0.3564276865466847  0.28533859174660614  0.34123376968376384  1.0000
  C   C25       1.0  0.6725859242598224  0.30035775713826707  0.9152418381017616  1.0000
  C   C26       1.0  0.8274140759482854  0.8003577569772551  0.5847581616372087  1.0000
  C   C27       1.0  0.32741407637970654  0.6996422432551541  0.08475816215450024  1.0000
  C   C28       1.0  0.17258592335611841  0.19964224270072098  0.4152418379744733  1.0000
  C   C29       1.0  0.6308059545908721  0.23041068604104006  0.9823254568386242  1.0000
  C   C30       1.0  0.8691940444493567  0.7304106865954733  0.5176745429020314  1.0000
  C   C31       1.0  0.36919404471353173  0.769589313636936  0.017674542773057945  1.0000
  C   C32       1.0  0.13080595502229317  0.269589313797948  0.48232545735591553  1.0000
  C   C33       1.0  0.7054459654043603  0.18141057089732657  0.12730275307901304  1.0000
  C   C34       1.0  0.7945540343757955  0.6814105707363146  0.37269724701520085  1.0000
  C   C35       1.0  0.29455403406728936  0.8185894294960946  0.8726972471789339  1.0000
  C   C36       1.0  0.20544596492860817  0.3185894296571066  0.6273027525964812  1.0000
  C   C37       1.0  0.8239183830520486  0.19997650514401316  0.20697757965345803  1.0000
  C   C38       1.0  0.6760816167281074  0.6999765049830012  0.2930224204407558  1.0000
  C   C39       1.0  0.1760816164196013  0.8000234952494081  0.793022420604489  1.0000
  C   C40       1.0  0.32391838391142147  0.30002349541042  0.7069775798155059  1.0000
  C   C41       1.0  0.31837430082153007  0.35884260890703734  0.10140057952518083  1.0000
  C   C42       1.0  0.181625700082174  0.8588426087460254  0.3985994206021075  1.0000
  C   C43       1.0  0.6816256996507528  0.6411573907709388  0.898599420084816  1.0000
  C   C44       1.0  0.8183743005573549  0.14115739093195073  0.6014005796541544  1.0000
  C   C45       1.0  0.44217016291197897  0.41429012887854594  0.08588724097776279  1.0000
  C   C46       1.0  0.05782983682384598  0.9142901294329792  0.4141127591512107  1.0000
  C   C47       1.0  0.5578298377275499  0.5857098707994302  0.914112759278499  1.0000
  C   C48       1.0  0.942170162480558  0.08570987096044214  0.5858872404604714  1.0000
  C   C49       1.0  0.43510693430277814  0.47187346601846386  0.008631330650937765  1.0000
  C   C50       1.0  0.0648930666009259  0.9718734658574518  0.49136866947635055  1.0000
  C   C51       1.0  0.5648930663367508  0.5281265343749574  0.991368669605324  1.0000
  C   C52       1.0  0.935106934038603  0.02812653382052417  0.5086313307799113  1.0000
  C   C53       1.0  0.2903032212781358  0.4693269861586252  0.9493073239835027  1.0000
  C   C54       1.0  0.20969677888564084  0.9693269859976132  0.5506926757902273  1.0000
  C   C55       1.0  0.7096967793613931  0.530673014234796  0.05069267627275909  1.0000
  C   C56       1.0  0.790303221586642  0.030673014395807986  0.4493073238197696  1.0000
  C   C57       1.0  0.1660969119997379  0.4135818416932668  0.9636294237330061  1.0000
  C   C58       1.0  0.33390308833128485  0.9135818415322547  0.5363705766869888  1.0000
  C   C59       1.0  0.833903087471912  0.5864181587001546  0.036370576524940856  1.0000
  C   C60       1.0  0.6660969123082441  0.08641815814572128  0.463629423569273  1.0000
  C   C61       1.0  0.1760465772429555  0.35491010061008  0.04012311959402407  1.0000
  C   C62       1.0  0.3239534224928694  0.8549101011645132  0.4598768805349494  1.0000
  C   C63       1.0  0.8239534233965735  0.645089899067896  0.9598768806622376  1.0000
  C   C64       1.0  0.6760465769787803  0.14508989922890805  0.5401231197229975  1.0000
  N   N1        1.0  0.058097818139810964  0.2991018195354189  0.052504888520446096  1.0000
  N   N2        1.0  0.4419021815960139  0.7991018193744068  0.4474951116085274  1.0000
  N   N3        1.0  0.9419021824997181  0.7008981808580024  0.9474951117358157  1.0000
  N   N4        1.0  0.5580978178756358  0.20089818030356912  0.5525048886494196  1.0000
  O   O1        1.0  0.24352363025051746  0.12365638544014979  0.11279503663821305  1.0000
  O   O2        1.0  0.2564763694853075  0.6236563852791378  0.38720496349076045  1.0000
  O   O3        1.0  0.7564763692211324  0.8763436149532715  0.8872049636197339  1.0000
  O   O4        1.0  0.7435236311542215  0.37634361511428344  0.6127950367655014  1.0000
  O   O5        1.0  0.05744411657963599  0.1353640704445275  0.9351260879002016  1.0000
  O   O6        1.0  0.4425558835841406  0.6353640702835155  0.5648739118735285  1.0000
  O   O7        1.0  0.9425558838926469  0.8646359299488937  0.0648739117097954  1.0000
  O   O8        1.0  0.5574441157202632  0.3646359301099057  0.4351260877381536  1.0000
  O   O9        1.0  0.8335924823807239  0.2904660817141233  0.9002294192336612  1.0000
  O   O10       1.0  0.6664075178273838  0.7904660815531113  0.5997705805053092  1.0000
  O   O11       1.0  0.16640751809155888  0.7095339179638527  0.09977058037633568  1.0000
  O   O12       1.0  0.333592481644266  0.20953391812486472  0.4002294197526378  1.0000
  O   O13       1.0  0.727237629434246  0.25006798617418413  0.062175897008471724  1.0000
  O   O14       1.0  0.7727623715137891  0.7500679860131721  0.437824103084057  1.0000
  O   O15       1.0  0.2727623710380368  0.7499320142192372  0.9378241026015252  1.0000
  O   O16       1.0  0.22723762912573986  0.24993201366480391  0.5621758971722048  1.0000
  O   O17       1.0  0.9856165611934783  0.1838815448155465  0.1949081189102823  1.0000
  O   O18       1.0  0.5143834385866777  0.6838815446545345  0.30509188118393155  1.0000
  O   O19       1.0  0.014383439446050606  0.8161184548624295  0.8050918813459794  1.0000
  O   O20       1.0  0.48561656088497207  0.3161184550234415  0.6949081190740154  1.0000
  F   F1        1.0  0.48565411212180704  0.9147221610420796  0.30624706395408374  1.0000
  F   F2        1.0  0.014345887614017897  0.4147221604876464  0.19375293617488978  1.0000
  F   F3        1.0  0.5143458871825968  0.08527783935134167  0.6937529356575983  1.0000
  F   F4        1.0  0.9856541118576319  0.5852778391903297  0.8062470640830571  1.0000
  F   F5        1.0  0.5045999439215038  0.9352580736873096  0.16138604532842668  1.0000
  F   F6        1.0  0.9954000558586523  0.43525807384832166  0.33861395476578715  1.0000
  F   F7        1.0  0.4954000555501461  0.06474192599066635  0.8386139549295203  1.0000
  F   F8        1.0  0.004599944613630561  0.5647419258296543  0.6613860448442097  1.0000
  F   F9        1.0  0.5542448755955256  0.06264731918206613  0.25770570712854646  1.0000
  F   F10       1.0  0.9457551241846305  0.5626473190210541  0.24229429296566737  1.0000
  F   F11       1.0  0.4457551238761243  0.9373526812113552  0.7422942931294005  1.0000
  F   F12       1.0  0.05424487645489847  0.4373526813723671  0.7577057072905944  1.0000
  F   F13       1.0  0.7314918521059206  0.9374884154774789  0.2613248778040346  1.0000
  F   F14       1.0  0.7685081476742355  0.43748841563849084  0.23867512229017923  1.0000
  F   F15       1.0  0.26850814736572926  0.06251158420049718  0.7386751224539123  1.0000
  F   F16       1.0  0.2314918516301683  0.5625115847549305  0.7613248773215028  1.0000
