data_image0
_chemical_formula_structural       H32C14N2O8P2
_chemical_formula_sum              "H32 C14 N2 O8 P2"
_cell_length_a       8.313793357712482
_cell_length_b       8.624196026360478
_cell_length_c       8.592197984826266
_cell_angle_alpha    107.66081616381425
_cell_angle_beta     114.00426149217755
_cell_angle_gamma    95.85766290353511

_space_group_name_H-M_alt    "P 1"
_space_group_IT_number       1

loop_
  _space_group_symop_operation_xyz
  'x, y, z'

loop_
  _atom_site_type_symbol
  _atom_site_label
  _atom_site_symmetry_multiplicity
  _atom_site_fract_x
  _atom_site_fract_y
  _atom_site_fract_z
  _atom_site_occupancy
  H   H1        1.0  0.794943722471859  0.27561259788058845  0.02504091984193265  1.0000
  H   H2        1.0  0.2050562781762152  0.7243874027015988  0.9749590791608022  1.0000
  H   H3        1.0  0.6669794054385868  0.46972116465594743  0.07451903495605047  1.0000
  H   H4        1.0  0.3330205945194282  0.5302788352342047  0.9254809654251459  1.0000
  H   H5        1.0  0.5955331283365657  0.040642553374083235  0.7173154848815394  1.0000
  H   H6        1.0  0.40446687162144934  0.959357446516069  0.2826845154996569  1.0000
  H   H7        1.0  0.3621951245192794  0.00971192773216633  0.5782724391618279  1.0000
  H   H8        1.0  0.6378048766336758  0.9902880721459059  0.42172756120389493  1.0000
  H   H9        1.0  0.0682265811894742  0.13761341710255204  0.394237244376328  1.0000
  H   H10       1.0  0.9317734187685409  0.8623865827876003  0.6057627560048684  1.0000
  H   H11       1.0  0.9313409686470498  0.06836517891847867  0.14899758319184142  1.0000
  H   H12       1.0  0.06865903131096514  0.9316348209716734  0.8510024171893549  1.0000
  H   H13       1.0  0.8614540747970385  0.8410667281698794  0.23574765309420573  1.0000
  H   H14       1.0  0.13854592451928094  0.1589332712540193  0.7642523459100825  1.0000
  H   H15       1.0  0.9985728306082222  0.781143593772436  0.12380310882195569  1.0000
  H   H16       1.0  0.001427169903037144  0.21885640563938252  0.8761968901668591  1.0000
  H   H17       1.0  0.9607986018400777  0.6528823197054361  0.3960962833542847  1.0000
  H   H18       1.0  0.03920139811793725  0.34711768018471617  0.6039037170269117  1.0000
  H   H19       1.0  0.09754028467454452  0.5999806000085134  0.281390228168115  1.0000
  H   H20       1.0  0.9024597166152254  0.40001940103992745  0.718609772211528  1.0000
  H   H21       1.0  0.25207502538951454  0.7819270244890886  0.6999718138666499  1.0000
  H   H22       1.0  0.7479249757634406  0.21807297538898368  0.30002818649907315  1.0000
  H   H23       1.0  0.20779388819242559  0.5598145001472709  0.5858945661873389  1.0000
  H   H24       1.0  0.7922061117655893  0.4401854997428813  0.41410543419385737  1.0000
  H   H25       1.0  0.5651349564807334  0.8027502124806566  0.8574604003099471  1.0000
  H   H26       1.0  0.43486504297240064  0.19724978811361063  0.14253959870826133  1.0000
  H   H27       1.0  0.5333745384166846  0.582514375981742  0.7426056248549131  1.0000
  H   H28       1.0  0.4666254615413305  0.41748562390841015  0.2573943755262832  1.0000
  H   H29       1.0  0.8385962460256138  0.7065014684276234  0.8242645631115854  1.0000
  H   H30       1.0  0.16140375393240128  0.2934985314625288  0.17573543726961105  1.0000
  H   H31       1.0  0.7127024525116669  0.666735975811655  0.5839724389660889  1.0000
  H   H32       1.0  0.2872975474463483  0.3332640240784973  0.41602756141510755  1.0000
  C   C1        1.0  0.4957158387475455  0.25127859300379823  0.7649828746029276  1.0000
  C   C2        1.0  0.5042841612104696  0.748721406886354  0.2350171257782688  1.0000
  C   C3        1.0  0.04599386076641876  0.049495001215451744  0.2594294259115515  1.0000
  C   C4        1.0  0.9540061391915963  0.9505049986747004  0.7405705744696449  1.0000
  C   C5        1.0  0.9987318805162796  0.8715506691909013  0.2466302371073598  1.0000
  C   C6        1.0  0.0012681206366755425  0.12844933068717077  0.7533697632583631  1.0000
  C   C7        1.0  0.09618500432012604  0.6887034332952526  0.40429773201906494  1.0000
  C   C8        1.0  0.903814995637889  0.3112965665948996  0.5957022683621315  1.0000
  C   C9        1.0  0.24262228647719736  0.6829217826655651  0.5768164511920088  1.0000
  C   C10       1.0  0.7573777134808176  0.31707821722458707  0.4231835491891876  1.0000
  C   C11       1.0  0.5575813428940215  0.7068049782164422  0.7332325275274982  1.0000
  C   C12       1.0  0.4424186570639935  0.2931950216737099  0.26676747285369806  1.0000
  C   C13       1.0  0.7331088191097966  0.7422604926120652  0.7226823014346179  1.0000
  C   C14       1.0  0.26689118204315854  0.257739507266007  0.27731769893110503  1.0000
  N   N1        1.0  0.48340528063488214  0.08775705739890698  0.6869817108262157  1.0000
  N   N2        1.0  0.5165947186814372  0.9122429420249918  0.3130182881780726  1.0000
  O   O1        1.0  0.364666401716839  0.3161246476347544  0.7206781204112035  1.0000
  O   O2        1.0  0.6353335982411761  0.6838753522553978  0.27932187996999297  1.0000
  O   O3        1.0  0.2077864628167556  0.08219129568620377  0.23979380262578226  1.0000
  O   O4        1.0  0.7922135364995637  0.9178087037376949  0.7602061963785061  1.0000
  O   O5        1.0  0.12978194104332405  0.856319236418815  0.40866525855666136  1.0000
  O   O6        1.0  0.8702180582729954  0.14368076300508373  0.5913347404476269  1.0000
  O   O7        1.0  0.41171348907522604  0.7075171453088731  0.5714740973475995  1.0000
  O   O8        1.0  0.5882865103779079  0.29248285528539403  0.42852590167060883  1.0000
  P   P1        1.0  0.7270915896368662  0.39210208484341713  0.9436318521144668  1.0000
  P   P2        1.0  0.2729084116529037  0.6078979162050235  0.056368148265176186  1.0000
