data_image0
_chemical_formula_structural       H108C72N8F24Br12
_chemical_formula_sum              "H108 C72 N8 F24 Br12"
_cell_length_a       8.053672426467894
_cell_length_b       11.769064410055346
_cell_length_c       23.34843504636647
_cell_angle_alpha    90.0
_cell_angle_beta     90.0
_cell_angle_gamma    90.0

_space_group_name_H-M_alt    "P 1"
_space_group_IT_number       1

loop_
  _space_group_symop_operation_xyz
  'x, y, z'

loop_
  _atom_site_type_symbol
  _atom_site_label
  _atom_site_symmetry_multiplicity
  _atom_site_fract_x
  _atom_site_fract_y
  _atom_site_fract_z
  _atom_site_occupancy
  H   H1        1.0  0.600379166665536  0.7935934968645547  0.1699145699539032  1.0000
  H   H2        1.0  0.8996208333714854  0.2064065031307426  0.6699145698175671  1.0000
  H   H3        1.0  0.39962083253136516  0.29359349729174866  0.330085430338055  1.0000
  H   H4        1.0  0.10037916706708543  0.7064065027035485  0.8300854302017189  1.0000
  H   H5        1.0  0.6860212021837967  0.5951922137510893  0.18587549150003457  1.0000
  H   H6        1.0  0.8139787978532247  0.40480778624420793  0.6858754913636985  1.0000
  H   H7        1.0  0.3139787970131045  0.09519221332859809  0.3141245087919236  1.0000
  H   H8        1.0  0.18602120258534607  0.9048077866666993  0.8141245086555875  1.0000
  H   H9        1.0  0.5754523979357524  0.6619190794252239  0.2423202308319366  1.0000
  H   H10       1.0  0.9245476021012689  0.33808092057007344  0.7423202311238948  1.0000
  H   H11       1.0  0.4245476025028183  0.16191907900273259  0.25767976903172735  1.0000
  H   H12       1.0  0.07545239709563228  0.8380809209925648  0.7576797688953912  1.0000
  H   H13       1.0  0.8126933221780562  0.5514068377818897  0.27996940424567246  1.0000
  H   H14       1.0  0.6873066778589653  0.4485931622134076  0.7799694041093364  1.0000
  H   H15       1.0  0.18730667826051461  0.05140683820908368  0.22003059604628572  1.0000
  H   H16       1.0  0.3126933225796056  0.9485931617862137  0.7200305959099497  1.0000
  H   H17       1.0  0.9551458505711382  0.6270004838868324  0.23697719393236444  1.0000
  H   H18       1.0  0.5448541494658832  0.3729995161084649  0.7369771937960283  1.0000
  H   H19       1.0  0.04485414986743254  0.12700048431402639  0.26302280635959374  1.0000
  H   H20       1.0  0.45514585097268767  0.8729995165309561  0.7630228062232577  1.0000
  H   H21       1.0  0.7404150733028043  0.7277032422970421  0.33311141944009526  1.0000
  H   H22       1.0  0.7595849267342171  0.27229675769825523  0.8331114193037592  1.0000
  H   H23       1.0  0.2595849271357665  0.227703242724236  0.16688858085186292  1.0000
  H   H24       1.0  0.24041507246268415  0.7722967572710613  0.6668885807155269  1.0000
  H   H25       1.0  0.9587216801399391  0.7124605922655979  0.33387524793500656  1.0000
  H   H26       1.0  0.5412783198970823  0.28753940772969955  0.8338752482269648  1.0000
  H   H27       1.0  0.04127832029863168  0.2124605918431065  0.16612475192865742  1.0000
  H   H28       1.0  0.45872167929981894  0.7875394081521908  0.6661247517923214  1.0000
  H   H29       1.0  0.9923527102660039  0.8460841833351113  0.25462973506334446  1.0000
  H   H30       1.0  0.5076472897710174  0.1539158166601861  0.7546297353553025  1.0000
  H   H31       1.0  0.007647290172566782  0.34608418291261994  0.2453702648003195  1.0000
  H   H32       1.0  0.4923527094258838  0.6539158170826773  0.7453702646639834  1.0000
  H   H33       1.0  0.8720387194938513  0.9125076875970208  0.30834034125642035  1.0000
  H   H34       1.0  0.6279612805431702  0.0874923123982765  0.8083403415483784  1.0000
  H   H35       1.0  0.12796128094471962  0.4125076880242148  0.19165965860724363  1.0000
  H   H36       1.0  0.37203871989540055  0.5874923119710825  0.6916596584709075  1.0000
  H   H37       1.0  0.6119305341751282  0.8658637539015795  0.25830791262982616  1.0000
  H   H38       1.0  0.8880694658618932  0.13413624609371783  0.7583079124934902  1.0000
  H   H39       1.0  0.3880694662634425  0.3658637543287734  0.24169208723383778  1.0000
  H   H40       1.0  0.11193053333500808  0.6341362456665238  0.7416920875257961  1.0000
  H   H41       1.0  0.8104098905922914  0.7034932966231481  0.11609850358779604  1.0000
  H   H42       1.0  0.6895901094447301  0.2965067033721493  0.61609850345146  1.0000
  H   H43       1.0  0.18959010984627944  0.20349329620065673  0.3839014967041621  1.0000
  H   H44       1.0  0.31040989099384075  0.7965067037946405  0.8839014965678261  1.0000
  H   H45       1.0  0.9634132677783713  0.7533449933730378  0.16510745976527122  1.0000
  H   H46       1.0  0.53658673225865  0.2466550066222595  0.6651074600572294  1.0000
  H   H47       1.0  0.036586732660199364  0.2533449938002318  0.3348925400983927  1.0000
  H   H48       1.0  0.46341326817992085  0.7466550061950656  0.8348925399620566  1.0000
  H   H49       1.0  0.951815448168397  0.8832003452304259  0.08385701209146765  1.0000
  H   H50       1.0  0.5481845518686245  0.11679965476487146  0.5838570119551316  1.0000
  H   H51       1.0  0.04818455227017383  0.3832003448079346  0.41614298777219627  1.0000
  H   H52       1.0  0.4518154473282768  0.6167996551873627  0.9161429880641545  1.0000
  H   H53       1.0  0.007190068944161922  0.9592268065382191  0.18141464177742295  1.0000
  H   H54       1.0  0.4928099306542887  0.04077319345707815  0.6814146416410869  1.0000
  H   H55       1.0  0.9928099302527393  0.4592268069654131  0.318585358086241  1.0000
  H   H56       1.0  0.507190069784282  0.5407731930298842  0.8185853583781991  1.0000
  H   H57       1.0  0.9017424841036215  0.062486597436893596  0.13975928808589766  1.0000
  H   H58       1.0  0.5982575159333999  0.9375134025584037  0.6397592883778559  1.0000
  H   H59       1.0  0.09825751633494931  0.5624865978593848  0.36024071177776634  1.0000
  H   H60       1.0  0.40174248450517086  0.43751340213591244  0.8602407116414303  1.0000
  H   H61       1.0  0.7633347229018326  0.04773461597508226  0.2351586493525808  1.0000
  H   H62       1.0  0.7366652771351888  0.952265384020215  0.7351586492162447  1.0000
  H   H63       1.0  0.23666527629506862  0.5477346163975735  0.2648413509393774  1.0000
  H   H64       1.0  0.263334723303382  0.4522653835977238  0.7648413508030414  1.0000
  H   H65       1.0  0.4779778175915044  0.003720243893184208  0.20028382719071092  1.0000
  H   H66       1.0  0.0220221820069462  0.9962797561021131  0.7002838270543748  1.0000
  H   H67       1.0  0.5220221828470664  0.5037202434659902  0.29971617267295303  1.0000
  H   H68       1.0  0.977977817189955  0.49627975652930706  0.7997161729649112  1.0000
  H   H69       1.0  0.5912087998950576  0.09658354142652317  0.15419628308494607  1.0000
  H   H70       1.0  0.9087912001419639  0.9034164585687742  0.65419628294861  1.0000
  H   H71       1.0  0.40879119930184366  0.5965835409993292  0.3458037167787179  1.0000
  H   H72       1.0  0.09120880029660694  0.4034164589959681  0.845803717070676  1.0000
  H   H73       1.0  0.7120862131358332  0.004896362020991693  0.06345690223167967  1.0000
  H   H74       1.0  0.7879137869011882  0.9951036379743057  0.5634569020953436  1.0000
  H   H75       1.0  0.2879137873027376  0.5048963615937978  0.43654309763198423  1.0000
  H   H76       1.0  0.21208621353738258  0.49510363840149957  0.9365430974956481  1.0000
  H   H77       1.0  0.6362305565297537  0.7507052457331612  0.05205174297919945  1.0000
  H   H78       1.0  0.8637694435072677  0.24929475426213618  0.5520517428428634  1.0000
  H   H79       1.0  0.36376944390881716  0.2507052453106699  0.44794825688446455  1.0000
  H   H80       1.0  0.13623055693130307  0.7492947546846274  0.9479482567481284  1.0000
  H   H81       1.0  0.7533836812209447  0.8362814517006891  0.004547213540828829  1.0000
  H   H82       1.0  0.7466163188160767  0.16371854829460813  0.5045472134044927  1.0000
  H   H83       1.0  0.24661631921762614  0.3362814512781979  0.4954527863228351  1.0000
  H   H84       1.0  0.2533836803808245  0.6637185487170995  0.9954527866147932  1.0000
  H   H85       1.0  0.5024565882144687  0.9531613779270027  0.9838768398987388  1.0000
  H   H86       1.0  0.9975434118225526  0.046838622068294686  0.48387684003507475  1.0000
  H   H87       1.0  0.49754341098243254  0.45316137750451135  0.5161231601205474  1.0000
  H   H88       1.0  0.0024565886160181124  0.546838622490786  0.01612316025688343  1.0000
  H   H89       1.0  0.45951530606554064  0.8082820450767899  0.9707599779166907  1.0000
  H   H90       1.0  0.04048469477457953  0.19171795491850735  0.4707599780530268  1.0000
  H   H91       1.0  0.5404846943730302  0.3082820446542987  0.5292400216743011  1.0000
  H   H92       1.0  0.9595153056639912  0.6917179553409987  0.029240021810637135  1.0000
  H   H93       1.0  0.23084425235499256  0.9033624406810432  0.028924861930097513  1.0000
  H   H94       1.0  0.26915574724345803  0.09663755931425405  0.5289248617937614  1.0000
  H   H95       1.0  0.7691557468419087  0.4033624411082372  0.4710751379335665  1.0000
  H   H96       1.0  0.7308442531951127  0.5966375588870602  0.9710751382255246  1.0000
  H   H97       1.0  0.32570647166865585  0.7906741127229704  0.06718651964831042  1.0000
  H   H98       1.0  0.17429352917146435  0.2093258872723269  0.5671865195119743  1.0000
  H   H99       1.0  0.674293528769915  0.29067411315016434  0.4328134802153536  1.0000
  H   H100      1.0  0.8257064712671064  0.709325886845133  0.9328134805073117  1.0000
  H   H101      1.0  0.39842761663045295  0.04504736413431752  0.0801982088427551  1.0000
  H   H102      1.0  0.10157238296799767  0.9549526358609798  0.5801982091347132  1.0000
  H   H103      1.0  0.6015723838081178  0.5450473637071236  0.41980179102090887  1.0000
  H   H104      1.0  0.8984276162289035  0.45495263628817373  0.9198017908845728  1.0000
  H   H105      1.0  0.2973444576824255  0.9542627738874941  0.1306360440835914  1.0000
  H   H106      1.0  0.2026555419160251  0.04573722610780313  0.6306360439472554  1.0000
  H   H107      1.0  0.7026555415144757  0.45426277346500293  0.36936395620836676  1.0000
  H   H108      1.0  0.7973444585225458  0.5457372265302944  0.8693639560720307  1.0000
  C   C1        1.0  0.7181112508367123  0.3158097492290401  0.04540740216184165  1.0000
  C   C2        1.0  0.781888749200309  0.6841902507662573  0.5454074020255055  1.0000
  C   C3        1.0  0.28188874836018885  0.8158097488018462  0.45459259813011654  1.0000
  C   C4        1.0  0.21811125123826172  0.18419025119345112  0.9545925979937804  1.0000
  C   C5        1.0  0.6423796978627491  0.4031504607916142  0.08813265154232394  1.0000
  C   C6        1.0  0.8576203021742722  0.5968495392036831  0.5881326518342821  1.0000
  C   C7        1.0  0.35762030257582167  0.9031504612141055  0.41186734832134003  1.0000
  C   C8        1.0  0.14237969702262898  0.09684953878119185  0.9118673481850039  1.0000
  C   C9        1.0  0.4584416331444044  0.43465610024441553  0.07570924760009096  1.0000
  C   C10       1.0  0.041558366454046175  0.5653438997508817  0.5757092474637548  1.0000
  C   C11       1.0  0.5415583672941663  0.9346561006669069  0.42429075226357305  1.0000
  C   C12       1.0  0.958441632742855  0.06534389932839049  0.924290752127237  1.0000
  C   C13       1.0  0.6951690127848185  0.6589609275461115  0.21982888830910127  1.0000
  C   C14       1.0  0.8048309872522029  0.34103907244918585  0.7198288881727652  1.0000
  C   C15       1.0  0.3048309864120827  0.1589609279733054  0.28017111155456265  1.0000
  C   C16       1.0  0.1951690131863679  0.8410390720219919  0.7801711118465209  1.0000
  C   C17       1.0  0.8372849369734521  0.6347376120753909  0.2605473646486088  1.0000
  C   C18       1.0  0.6627150630635693  0.3652623879199064  0.7605473649405669  1.0000
  C   C19       1.0  0.16271506346511871  0.13473761165289969  0.2394526352150552  1.0000
  C   C20       1.0  0.33728493613333194  0.8652623883423977  0.7394526350787192  1.0000
  C   C21       1.0  0.8518966698287963  0.7280260173170134  0.3057632464798107  1.0000
  C   C22       1.0  0.6481033302082252  0.2719739826782839  0.8057632467717688  1.0000
  C   C23       1.0  0.14810333060977457  0.22802601689452218  0.19423675338385327  1.0000
  C   C24       1.0  0.35189666898867605  0.7719739831007751  0.6942367532475172  1.0000
  C   C25       1.0  0.8716859487515668  0.8435605273362008  0.2766337254369927  1.0000
  C   C26       1.0  0.6283140512854546  0.1564394726590966  0.7766337257289508  1.0000
  C   C27       1.0  0.12831405168700397  0.3435605269137095  0.2233662744266712  1.0000
  C   C28       1.0  0.3716859491531162  0.6564394730815879  0.7233662742903352  1.0000
  C   C29       1.0  0.7307328754344465  0.8677784991366168  0.23496913600870084  1.0000
  C   C30       1.0  0.769267124602575  0.13222150085868056  0.7349691358723648  1.0000
  C   C31       1.0  0.2692671250041243  0.36777849871412543  0.2650308638549631  1.0000
  C   C32       1.0  0.23073287459432626  0.6322215012811718  0.7650308641469212  1.0000
  C   C33       1.0  0.8428301823764348  0.772824991273646  0.14541739192616163  1.0000
  C   C34       1.0  0.6571698176605866  0.2271750087216514  0.6454173917898256  1.0000
  C   C35       1.0  0.15716981806213595  0.2728249917008399  0.35458260793750235  1.0000
  C   C36       1.0  0.3428301815363146  0.7271750082944575  0.8545826082294605  1.0000
  C   C37       1.0  0.8503082168445456  0.8881782540903642  0.11538499195556384  1.0000
  C   C38       1.0  0.6496917831924759  0.11182174590493307  0.6153849922475221  1.0000
  C   C39       1.0  0.14969178235235564  0.3881782545175582  0.3846150079081001  1.0000
  C   C40       1.0  0.35030821724609496  0.6118217454777392  0.884615007771764  1.0000
  C   C41       1.0  0.8890249628814528  0.9787762874471199  0.16021034739894183  1.0000
  C   C42       1.0  0.610975035913899  0.021223712548177426  0.6602103476909  1.0000
  C   C43       1.0  0.11097503631544839  0.4787762870246286  0.33978965246472215  1.0000
  C   C44       1.0  0.38902496328300223  0.5212237129706687  0.8397896523283861  1.0000
  C   C45       1.0  0.7448017975360737  0.9808164717101515  0.20284112749291222  1.0000
  C   C46       1.0  0.7551982025009477  0.019183528285145843  0.7028411277848704  1.0000
  C   C47       1.0  0.2551982016608276  0.4808164721373454  0.2971588723707517  1.0000
  C   C48       1.0  0.24480179793762308  0.5191835278579519  0.7971588722344157  1.0000
  C   C49       1.0  0.584288828849694  0.008312249520566601  0.17075238713356228  1.0000
  C   C50       1.0  0.9157111711873273  0.9916877504747308  0.6707523869972263  1.0000
  C   C51       1.0  0.4157111703472071  0.5083122499430578  0.3292476131583959  1.0000
  C   C52       1.0  0.08428882925124347  0.49168775005223947  0.8292476130220598  1.0000
  C   C53       1.0  0.6901061808442  0.9200949627523601  0.0831529901744802  1.0000
  C   C54       1.0  0.8098938191928214  0.07990503724293727  0.5831529900381441  1.0000
  C   C55       1.0  0.3098938195943708  0.42009496232986876  0.416847010117478  1.0000
  C   C56       1.0  0.19010618124574943  0.5799050376654286  0.916847009981142  1.0000
  C   C57       1.0  0.6490101041137543  0.8374533638866923  0.03484031106943904  1.0000
  C   C58       1.0  0.8509898959232671  0.16254663610860495  0.5348403113613972  1.0000
  C   C59       1.0  0.35098989508314693  0.3374533634642011  0.4651596887942249  1.0000
  C   C60       1.0  0.14901010451530364  0.6625466365310962  0.9651596886578888  1.0000
  C   C61       1.0  0.4878008555561483  0.869808760775731  0.004815222937928607  1.0000
  C   C62       1.0  0.012199145283971858  0.13019123921956635  0.5048152228015925  1.0000
  C   C63       1.0  0.5121991448824225  0.36980876035323973  0.49518477735402955  1.0000
  C   C64       1.0  0.9878008551545989  0.6301912396420576  0.9951847772176936  1.0000
  C   C65       1.0  0.3476936932271146  0.8755565931983494  0.04880621753608018  1.0000
  C   C66       1.0  0.15230630637133596  0.12444340679694799  0.5488062173997441  1.0000
  C   C67       1.0  0.6523063072114562  0.3755565936255433  0.45119378232758384  1.0000
  C   C68       1.0  0.8476936928255653  0.624443406369754  0.9511937826195419  1.0000
  C   C69       1.0  0.39265248728112107  0.9569088780224493  0.09694577797205539  1.0000
  C   C70       1.0  0.10734751231732959  0.04309112197284806  0.5969457782640135  1.0000
  C   C71       1.0  0.6073475131574497  0.45690887844964323  0.4030542218916086  1.0000
  C   C72       1.0  0.8926524868795715  0.5430911215456542  0.9030542217552726  1.0000
  N   N1        1.0  0.711701353926783  0.7722397960737527  0.19128241747812694  1.0000
  N   N2        1.0  0.7882986461102385  0.22776020392154472  0.691282417770085  1.0000
  N   N3        1.0  0.2882986465117878  0.27223979650094654  0.30871758238553704  1.0000
  N   N4        1.0  0.21170135432833237  0.7277602034943508  0.808717582249201  1.0000
  N   N5        1.0  0.5509166930378736  0.9272727542111123  0.12423306034172106  1.0000
  N   N6        1.0  0.9490833069991478  0.07272724578418505  0.624233060205385  1.0000
  N   N7        1.0  0.44908330740069713  0.427272753788621  0.37576693952194284  1.0000
  N   N8        1.0  0.05091669219775346  0.5727272462066764  0.8757669398139011  1.0000
  F   F1        1.0  0.7158607768864143  0.3559468827803195  0.9909001140357143  1.0000
  F   F2        1.0  0.7841392231506071  0.6440531172149779  0.49090011374375614  1.0000
  F   F3        1.0  0.28413922231048694  0.8559468832028108  0.5090998859835718  1.0000
  F   F4        1.0  0.21586077728796366  0.14405311679248659  0.00909988611990784  1.0000
  F   F5        1.0  0.7351712071801636  0.5016805341769928  0.08220222666695105  1.0000
  F   F6        1.0  0.7648287928568577  0.4983194658183046  0.5822022265306149  1.0000
  F   F7        1.0  0.26482879201673754  0.0016805346041866881  0.4177977731967129  1.0000
  F   F8        1.0  0.23517120758171306  0.9983194653911106  0.9177977734886711  1.0000
  F   F9        1.0  0.6339679005592783  0.2161466741423023  0.04638618810422353  1.0000
  F   F10       1.0  0.8660320994777431  0.783853325852995  0.5463861879678875  1.0000
  F   F11       1.0  0.36603209987929247  0.7161466737151084  0.45361381175944043  1.0000
  F   F12       1.0  0.13396790096082775  0.283853326280189  0.9536138120513987  1.0000
  F   F13       1.0  0.8790715620283768  0.2946703246043065  0.059003599053393155  1.0000
  F   F14       1.0  0.6209284380086445  0.7053296753909909  0.5590035989170571  1.0000
  F   F15       1.0  0.12092843716852437  0.7946703250267978  0.44099640123856504  1.0000
  F   F16       1.0  0.37907156242992623  0.20532967496849952  0.940996401102229  1.0000
  F   F17       1.0  0.4432427582065912  0.47051081522409294  0.01993285927197192  1.0000
  F   F18       1.0  0.056757241391859364  0.5294891847712043  0.5199328591356358  1.0000
  F   F19       1.0  0.5567572409903099  0.9705108156465843  0.48006714059169203  1.0000
  F   F20       1.0  0.9432427590467114  0.029489184348713057  0.9800671408836502  1.0000
  F   F21       1.0  0.3596842926563432  0.3413757194299446  0.08160870466119433  1.0000
  F   F22       1.0  0.14031570818377698  0.6586242805653527  0.5816087045248582  1.0000
  F   F23       1.0  0.6403157077822276  0.8413757190027505  0.4183912956307639  1.0000
  F   F24       1.0  0.8596842922547938  0.1586242809925467  0.9183912954944278  1.0000
  Br  Br1       1.0  0.725294922699236  0.25847293412728417  0.28983261176012376  1.0000
  Br  Br2       1.0  0.7747050773377854  0.7415270658680132  0.7898326120520819  1.0000
  Br  Br3       1.0  0.2747050764976652  0.7584729345497754  0.2101673881035402  1.0000
  Br  Br4       1.0  0.2252949231007854  0.24152706544552188  0.7101673879672041  1.0000
  Br  Br5       1.0  0.6695280903503104  0.3430481514359402  0.1670405602026397  1.0000
  Br  Br6       1.0  0.8304719096867109  0.6569518485593572  0.6670405604945978  1.0000
  Br  Br7       1.0  0.33047190884659083  0.8430481510087462  0.33295943966102426  1.0000
  Br  Br8       1.0  0.1695280907518598  0.15695184898655112  0.8329594395246882  1.0000
  Br  Br9       1.0  0.3777738637594846  0.5577407278348926  0.1258574030406936  1.0000
  Br  Br10      1.0  0.12222613583896604  0.44225927216040467  0.6258574029043575  1.0000
  Br  Br11      1.0  0.6222261354374167  0.05774072826208657  0.3741425972512646  1.0000
  Br  Br12      1.0  0.8777738645996048  0.9422592717332108  0.8741425971149285  1.0000
