data_image0
_chemical_formula_structural       H100C120N4O4S4Br4
_chemical_formula_sum              "H100 C120 N4 O4 S4 Br4"
_cell_length_a       14.442021561435626
_cell_length_b       11.004897502208197
_cell_length_c       15.718141086393981
_cell_angle_alpha    90.0
_cell_angle_beta     97.25557995092153
_cell_angle_gamma    90.0

_space_group_name_H-M_alt    "P 1"
_space_group_IT_number       1

loop_
  _space_group_symop_operation_xyz
  'x, y, z'

loop_
  _atom_site_type_symbol
  _atom_site_label
  _atom_site_symmetry_multiplicity
  _atom_site_fract_x
  _atom_site_fract_y
  _atom_site_fract_z
  _atom_site_occupancy
  H   H1        1.0  0.3561594162978252  0.2853567213479159  0.07969352572752772  1.0000
  H   H2        1.0  0.14384058385181292  0.7853567221562743  0.42030647399478044  1.0000
  H   H3        1.0  0.643840584078863  0.7146432784514283  0.9203064743583544  1.0000
  H   H4        1.0  0.8561594165248754  0.2146432785517562  0.5796935260911018  1.0000
  H   H5        1.0  0.38241496323416785  0.4862387713221581  0.04217246896489109  1.0000
  H   H6        1.0  0.11758503691547034  0.9862387712218301  0.45782753075741706  1.0000
  H   H7        1.0  0.6175850371425204  0.5137612284771861  0.9578275311209911  1.0000
  H   H8        1.0  0.8824149633838061  0.013761228577514011  0.5421724686871993  1.0000
  H   H9        1.0  0.34282095127854795  0.6822255635269217  0.971787475863765  1.0000
  H   H10       1.0  0.15717904821250459  0.1822255636272496  0.5282125241352028  1.0000
  H   H11       1.0  0.6571790484044333  0.31777443627242247  0.02821252421217562  1.0000
  H   H12       1.0  0.8428209514704766  0.8177744361720944  0.4717874759407379  1.0000
  H   H13       1.0  0.4121206744476611  0.5347529823716359  0.733335027936915  1.0000
  H   H14       1.0  0.08787932504339134  0.034752982471963824  0.7666649720620529  1.0000
  H   H15       1.0  0.5878793251579082  0.46524701742770824  0.26666497149775975  1.0000
  H   H16       1.0  0.9121206746395899  0.9652470173273803  0.23333502801388778  1.0000
  H   H17       1.0  0.44805675387695815  0.33918161611691705  0.8024384343143068  1.0000
  H   H18       1.0  0.0519432463078015  0.8391816169252755  0.6975615656946025  1.0000
  H   H19       1.0  0.5519432464997301  0.6608183836824271  0.19756156577157533  1.0000
  H   H20       1.0  0.9480567532977676  0.160818383782755  0.3024384337400722  1.0000
  H   H21       1.0  0.5213367602698028  0.711845848489557  0.7647188503793659  1.0000
  H   H22       1.0  0.9786632403339357  0.21184584858988487  0.7352811500700903  1.0000
  H   H23       1.0  0.47866324010688555  0.28815415130978717  0.23528114970651626  1.0000
  H   H24       1.0  0.021336760042752645  0.7881541512094593  0.26471885001579193  1.0000
  H   H25       1.0  0.5723502845060261  0.7615737337233986  0.6242230651277793  1.0000
  H   H26       1.0  0.9276497153265933  0.2615737329150402  0.8757769346704694  1.0000
  H   H27       1.0  0.42764971517695505  0.23842626698463187  0.3757769349481613  1.0000
  H   H28       1.0  0.07235028497268312  0.7384262668843039  0.12422306477414684  1.0000
  H   H29       1.0  0.45938642796081475  0.8517749027757063  0.5081081028872991  1.0000
  H   H30       1.0  0.04061357222394488  0.3517749028760342  0.9918918971216102  1.0000
  H   H31       1.0  0.5406135724158736  0.1482250979323242  0.49189189719858306  1.0000
  H   H32       1.0  0.9593864281527434  0.6482250978319962  0.008108102964272028  1.0000
  H   H33       1.0  0.29441220959749737  0.8895662206790806  0.5346814196914523  1.0000
  H   H34       1.0  0.20558779058726226  0.38956622077940856  0.965318580317457  1.0000
  H   H35       1.0  0.7055877907791909  0.11043377912026354  0.46531858039442986  1.0000
  H   H36       1.0  0.7944122090957189  0.6104337799286219  0.03468141975848364  1.0000
  H   H37       1.0  0.24322440800486522  0.8336946244305353  0.6736592692463551  1.0000
  H   H38       1.0  0.2567755914861872  0.3336946245308633  0.8263407307526125  1.0000
  H   H39       1.0  0.7567755916781159  0.16630537536880874  0.32634073082958537  1.0000
  H   H40       1.0  0.7432244081967939  0.6663053752684809  0.17365926932332812  1.0000
  H   H41       1.0  0.38055599408248625  0.959241596560241  0.854597615693911  1.0000
  H   H42       1.0  0.11944400610227347  0.45924159666056896  0.6454023843149983  1.0000
  H   H43       1.0  0.6194440055230831  0.04075840323910308  0.14540238374076364  1.0000
  H   H44       1.0  0.8805559942744149  0.5407584031387751  0.35459761577088394  1.0000
  H   H45       1.0  0.27429205665044254  0.09913850263313062  0.9209310368921889  1.0000
  H   H46       1.0  0.22570794353431708  0.5991385025328028  0.5790689631167203  1.0000
  H   H47       1.0  0.7257079430325385  0.9008614971662134  0.07906896318375166  1.0000
  H   H48       1.0  0.7742920568423712  0.4008614972665414  0.42093103696916184  1.0000
  H   H49       1.0  0.11645964332112987  0.03020673567684729  0.9454329878914629  1.0000
  H   H50       1.0  0.3835403561699226  0.5302067355765193  0.5545670121075048  1.0000
  H   H51       1.0  0.8835403563618514  0.9697932650311831  0.05456701218447764  1.0000
  H   H52       1.0  0.6164596435130586  0.4697932642228248  0.4454329879684358  1.0000
  H   H53       1.0  0.20160370224705113  0.5957268333198485  0.7887850059637992  1.0000
  H   H54       1.0  0.2983962979377085  0.09572683342017645  0.71121499404511  1.0000
  H   H55       1.0  0.7983962981296372  0.4042731664794956  0.21121499412208303  1.0000
  H   H56       1.0  0.7016037024389797  0.9042731663791677  0.2887850060407721  1.0000
  H   H57       1.0  0.03799312224455602  0.5386924347828284  0.7961283401731892  1.0000
  H   H58       1.0  0.4620068779402036  0.03869243488315629  0.70387165983572  1.0000
  H   H59       1.0  0.9620068781321324  0.4613075659252021  0.20387165991269285  1.0000
  H   H60       1.0  0.5379931216653656  0.9613075658248741  0.2961283395989547  1.0000
  H   H61       1.0  0.9318901026395474  0.679685983308715  0.8621505704845488  1.0000
  H   H62       1.0  0.568109897193072  0.17968598340904293  0.6378494293136999  1.0000
  H   H63       1.0  0.06810989704343375  0.3203140164906291  0.13784942959139185  1.0000
  H   H64       1.0  0.4318901024899092  0.8203140163903012  0.36215057076224066  1.0000
  H   H65       1.0  0.9907583495418317  0.8769258794153761  0.9224680906290111  1.0000
  H   H66       1.0  0.5092416502907875  0.3769258795157041  0.5775319091692377  1.0000
  H   H67       1.0  0.009241650834856513  0.12307412038396796  0.07753190945687113  1.0000
  H   H68       1.0  0.4907583493147817  0.6230741202836401  0.422468090265437  1.0000
  H   H69       1.0  0.36631719484543135  0.6507817395448658  0.14207130534154785  1.0000
  H   H70       1.0  0.13368280530420684  0.1507817396451938  0.35792869438076025  1.0000
  H   H71       1.0  0.6336828048375498  0.34921826116316457  0.8579286947343928  1.0000
  H   H72       1.0  0.8663171950724815  0.8492182610628366  0.6420713057051219  1.0000
  H   H73       1.0  0.3462884999743454  0.7107820412166903  0.24363196919433108  1.0000
  H   H74       1.0  0.15371150017529278  0.21078204131701833  0.2563680305279771  1.0000
  H   H75       1.0  0.6537114997086357  0.28921795858265376  0.7563680308816096  1.0000
  H   H76       1.0  0.8462885002013957  0.7892179584823259  0.7436319695579052  1.0000
  H   H77       1.0  0.2699989477087695  0.3599216811610669  0.1536082451442424  1.0000
  H   H78       1.0  0.2300010525182806  0.859921681060739  0.3463917552193317  1.0000
  H   H79       1.0  0.7300010526679188  0.6400783186382772  0.8463917549416399  1.0000
  H   H80       1.0  0.7699989478584077  0.14007831873860518  0.6536082448665507  1.0000
  H   H81       1.0  0.20780794844142023  0.4092812131231778  0.23629855612978898  1.0000
  H   H82       1.0  0.2921920517856299  0.9092812130228498  0.2637014442337851  1.0000
  H   H83       1.0  0.792192051935268  0.5907187866761664  0.7637014439560932  1.0000
  H   H84       1.0  0.7078079485910584  0.09071878677649428  0.736298555852097  1.0000
  H   H85       1.0  0.1247823082366833  0.5316190249682998  0.12233958346883253  1.0000
  H   H86       1.0  0.37521769121924775  0.03161902506862776  0.37766041624353397  1.0000
  H   H87       1.0  0.8752176914462978  0.4683809748310443  0.8776604166071081  1.0000
  H   H88       1.0  0.6247823084637334  0.9683809747307165  0.6223395838324066  1.0000
  H   H89       1.0  0.22397032631592878  0.5327221347426129  0.06463015185529823  1.0000
  H   H90       1.0  0.2760296738337094  0.03272213484294089  0.4353698478670099  1.0000
  H   H91       1.0  0.7760296733670523  0.46727786505673113  0.9353698482206423  1.0000
  H   H92       1.0  0.7239703264655669  0.9672778649564033  0.5646301515776063  1.0000
  H   H93       1.0  0.3388184704761827  0.5093122501936377  0.3031544738202201  1.0000
  H   H94       1.0  0.16118152905716024  0.00931225029396564  0.1968455265334124  1.0000
  H   H95       1.0  0.6611815292067984  0.4906877496057064  0.6968455262557205  1.0000
  H   H96       1.0  0.8388184706258208  0.9906877495053785  0.8031544735425282  1.0000
  H   H97       1.0  0.4044519271922103  0.46944154718055126  0.2195890510403009  1.0000
  H   H98       1.0  0.09554807295742791  0.9694415470802233  0.2804109486820072  1.0000
  H   H99       1.0  0.595548073184478  0.5305584526187929  0.7804109490455813  1.0000
  H   H100      1.0  0.9044519274192604  0.03055845271912082  0.719589051403875  1.0000
  C   C1        1.0  0.481291101270897  0.060286734144218514  0.0015176276206681476  1.0000
  C   C2        1.0  0.018708898878741245  0.5602867349525769  0.49848237210164  1.0000
  C   C3        1.0  0.5187088991057913  0.9397132656551256  0.9984823724652141  1.0000
  C   C4        1.0  0.98129110080424  0.4397132657554536  0.5015176279743007  1.0000
  C   C5        1.0  0.4269461177336701  0.11297086953790691  0.0591226981331024  1.0000
  C   C6        1.0  0.07305388241596812  0.6129708694375791  0.44087730158920574  1.0000
  C   C7        1.0  0.5730538826430182  0.8870291311701235  0.9408773019527799  1.0000
  C   C8        1.0  0.9269461171896012  0.3870291303617651  0.5591226978454689  1.0000
  C   C9        1.0  0.40000181405016044  0.23431217142027833  0.04129202793480979  1.0000
  C   C10       1.0  0.09999818540577059  0.7343121713199505  0.45870797177755673  1.0000
  C   C11       1.0  0.5999981856328207  0.7656878283790658  0.9587079721411308  1.0000
  C   C12       1.0  0.9000018142772105  0.2656878284793937  0.5412920282983839  1.0000
  C   C13       1.0  0.43202789052418217  0.278250325310669  0.9680551840123515  1.0000
  C   C14       1.0  0.0679721096605775  0.7782503252103411  0.5319448159965577  1.0000
  C   C15       1.0  0.567972109158799  0.7217496744886751  0.03194481606358906  1.0000
  C   C16       1.0  0.9320278907161108  0.22174967458900305  0.4680551840893244  1.0000
  C   C17       1.0  0.41590309881402754  0.39588414695600843  0.9277772755923274  1.0000
  C   C18       1.0  0.08409690137073215  0.8958841468556805  0.5722227244165818  1.0000
  C   C19       1.0  0.5840969015626608  0.604115853752022  0.07222272449355485  1.0000
  C   C20       1.0  0.915903098312249  0.10411585294366364  0.4277772756593586  1.0000
  C   C21       1.0  0.3861827528961297  0.49547558611117387  0.9736641532352188  1.0000
  C   C22       1.0  0.11381724721121804  0.995475586010846  0.5263358461324245  1.0000
  C   C23       1.0  0.6138172467094396  0.5045244136881702  0.026335846199455736  1.0000
  C   C24       1.0  0.8861827530880585  0.004524413788498185  0.4736641533121918  1.0000
  C   C25       1.0  0.36523560615303435  0.6066660874088434  0.934540691012633  1.0000
  C   C26       1.0  0.13476439403172524  0.10666608750917128  0.5654593089962762  1.0000
  C   C27       1.0  0.6347643942236539  0.3933339123905008  0.06545930907324919  1.0000
  C   C28       1.0  0.8652356056512558  0.8933339122901729  0.4345406910796643  1.0000
  C   C29       1.0  0.37393901272655955  0.6233924758157381  0.8469743030967732  1.0000
  C   C30       1.0  0.12606098745820007  0.12339247500737967  0.6530256969121361  1.0000
  C   C31       1.0  0.6260609876501287  0.3766075248922924  0.1530256969891089  1.0000
  C   C32       1.0  0.8739390129184883  0.8766075247919645  0.34697430317374617  1.0000
  C   C33       1.0  0.40651526146895556  0.5253619135334879  0.8013251527131068  1.0000
  C   C34       1.0  0.0934847387158041  0.025361913633815847  0.6986748472958024  1.0000
  C   C35       1.0  0.5934847389077328  0.47463808626585624  0.19867484737277538  1.0000
  C   C36       1.0  0.9065152616608843  0.9746380861655284  0.30132515279007976  1.0000
  C   C37       1.0  0.42688738650474733  0.41447826834232215  0.8409750809597138  1.0000
  C   C38       1.0  0.07311261298630513  0.9144782682419943  0.659024919039254  1.0000
  C   C39       1.0  0.5731126131782338  0.5855217314570219  0.15902491911622674  1.0000
  C   C40       1.0  0.926887386696676  0.08552173155734992  0.3409750810366867  1.0000
  C   C41       1.0  0.37854704018398505  0.7666617629384608  0.7274935969803012  1.0000
  C   C42       1.0  0.12145296000077471  0.26666176213010234  0.7725064030286082  1.0000
  C   C43       1.0  0.6214529601927034  0.2333382377695697  0.27250640310558094  1.0000
  C   C44       1.0  0.8785470403759136  0.7333382376692418  0.22749359705727412  1.0000
  C   C45       1.0  0.47148559700684906  0.7480962360937988  0.7132364502134386  1.0000
  C   C46       1.0  0.028514403177910656  0.2480962361941267  0.7867635497954708  1.0000
  C   C47       1.0  0.5285144026761321  0.2519037646142317  0.286763549862502  1.0000
  C   C48       1.0  0.9714855971987777  0.7519037645139037  0.21323645029041144  1.0000
  C   C49       1.0  0.499809920367384  0.7767576134429935  0.6341112137389768  1.0000
  C   C50       1.0  0.00019007981737565298  0.2767576135433215  0.8658887862699325  1.0000
  C   C51       1.0  0.5001900800093043  0.2232423863563506  0.36588878634690536  1.0000
  C   C52       1.0  0.9998099198656055  0.7232423862560227  0.13411121380600813  1.0000
  C   C53       1.0  0.4364071600561858  0.8276610834560122  0.5692283288695574  1.0000
  C   C54       1.0  0.06359284012857387  0.3276610835563402  0.9307716711393519  1.0000
  C   C55       1.0  0.5635928403205026  0.17233891634333182  0.4307716712163248  1.0000
  C   C56       1.0  0.9364071602481144  0.6723389171516903  0.06922832894653029  1.0000
  C   C57       1.0  0.3444568336320877  0.848724136515206  0.5841645111147594  1.0000
  C   C58       1.0  0.15554316655267203  0.348724136615534  0.9158354888941499  1.0000
  C   C59       1.0  0.6555431667446007  0.15127586328413808  0.41583548897112277  1.0000
  C   C60       1.0  0.8444568338240163  0.6512758631838101  0.0841645111917323  1.0000
  C   C61       1.0  0.31516601025967045  0.8181361405858977  0.6624843365531204  1.0000
  C   C62       1.0  0.1848339899250892  0.3181361406862256  0.8375156634557888  1.0000
  C   C63       1.0  0.684833990117018  0.18186385921344642  0.33751566353276163  1.0000
  C   C64       1.0  0.8151660104515991  0.6818638591131185  0.1624843366300934  1.0000
  C   C65       1.0  0.28379252349162354  0.8117897997875407  0.8417827118244481  1.0000
  C   C66       1.0  0.21620747669313606  0.3117897998878687  0.6582172881844612  1.0000
  C   C67       1.0  0.7162074768076528  0.18821020001180333  0.15821728762016812  1.0000
  C   C68       1.0  0.7837925236835522  0.6882101999114754  0.341782711901421  1.0000
  C   C69       1.0  0.31117025476533233  0.9287862406668537  0.8650131044524861  1.0000
  C   C70       1.0  0.18882974541942735  0.4287862407671817  0.6349868955564234  1.0000
  C   C71       1.0  0.688829745611356  0.07121376004117676  0.1349868956333962  1.0000
  C   C72       1.0  0.8111702542635538  0.5712137599408488  0.3650131045195173  1.0000
  C   C73       1.0  0.25091481108021746  0.007652123973267593  0.9026260821522355  1.0000
  C   C74       1.0  0.24908518841083505  0.5076521238729397  0.5973739178467322  1.0000
  C   C75       1.0  0.7490851886027636  0.9923478758260765  0.09737391792370506  1.0000
  C   C76       1.0  0.7509148112721462  0.4923478759264045  0.4026260822292084  1.0000
  C   C77       1.0  0.16314657677729213  0.9692661787953655  0.9163436888883851  1.0000
  C   C78       1.0  0.33685342340746754  0.4692661788956933  0.5836563111205243  1.0000
  C   C79       1.0  0.8368534229056891  0.03073382100397879  0.08365631118755552  1.0000
  C   C80       1.0  0.6631465769692209  0.5307338209036508  0.41634368896535795  1.0000
  C   C81       1.0  0.13041319227772089  0.8522803722722538  0.8886626726611243  1.0000
  C   C82       1.0  0.3695868079070388  0.35228037237258186  0.6113373273477851  1.0000
  C   C83       1.0  0.8695868073278484  0.14771962843577652  0.11133732677355036  1.0000
  C   C84       1.0  0.6304131924696496  0.6477196283354486  0.3886626727380971  1.0000
  C   C85       1.0  0.19126461079326754  0.7712015616953302  0.8501320267635888  1.0000
  C   C86       1.0  0.308735388697785  0.27120156179565813  0.6498679732353789  1.0000
  C   C87       1.0  0.8087353888897135  0.22879843810401396  0.1498679733123518  1.0000
  C   C88       1.0  0.6912646109077842  0.7287984389123724  0.3501320261992958  1.0000
  C   C89       1.0  0.15596776230762  0.6576118894835562  0.8180355018637107  1.0000
  C   C90       1.0  0.34403223787713966  0.15761188958388408  0.6819644981451988  1.0000
  C   C91       1.0  0.844032237375361  0.342388110315788  0.18196449821222996  1.0000
  C   C92       1.0  0.6559677624995487  0.8423881102154601  0.31803550194068353  1.0000
  C   C93       1.0  0.06428573151757491  0.6256572629248409  0.8221313733118234  1.0000
  C   C94       1.0  0.4357142679734775  0.12565726302516894  0.6778686266871441  1.0000
  C   C95       1.0  0.9357142681654063  0.3743427368745031  0.17786862676411705  1.0000
  C   C96       1.0  0.5642857317095037  0.8743427367741753  0.3221313733887964  1.0000
  C   C97       1.0  0.004383244053059442  0.7053640816229698  0.8596804618653123  1.0000
  C   C98       1.0  0.4956167561317002  0.20536408172329781  0.640319538143597  1.0000
  C   C99       1.0  0.9956167563236289  0.29463591817637425  0.14031953822056986  1.0000
  C   C100      1.0  0.5043832442449881  0.7946359189847326  0.35968046194228526  1.0000
  C   C101      1.0  0.03695480398953913  0.8155400300819818  0.8930897346899179  1.0000
  C   C102      1.0  0.4630451961952205  0.3155400301823098  0.6069102653189913  1.0000
  C   C103      1.0  0.9630451963871492  0.18445996971736228  0.10691026539596418  1.0000
  C   C104      1.0  0.5369548034877607  0.6844599696170344  0.39308973475694925  1.0000
  C   C105      1.0  0.32599306078275414  0.6388806118902267  0.19676843681081604  1.0000
  C   C106      1.0  0.174006939444296  0.1388806119905546  0.303231563552758  1.0000
  C   C107      1.0  0.6740069395939342  0.36111938790911746  0.8032315632750662  1.0000
  C   C108      1.0  0.825993060238685  0.8611193887174758  0.6967684365231824  1.0000
  C   C109      1.0  0.2519059270605478  0.4408985371309827  0.18875591399442246  1.0000
  C   C110      1.0  0.24809407239538322  0.9408985370306548  0.31124408571794404  1.0000
  C   C111      1.0  0.7480940726224334  0.5591014635770478  0.8112440860815181  1.0000
  C   C112      1.0  0.751905927287598  0.05910146276868933  0.6887559143579965  1.0000
  C   C113      1.0  0.20123456429892642  0.5371789658934853  0.12913515200628828  1.0000
  C   C114      1.0  0.2987654351570046  0.037178965993813345  0.3708648477060782  1.0000
  C   C115      1.0  0.7987654353840546  0.46282103390585866  0.8708648480696523  1.0000
  C   C116      1.0  0.7012345645259765  0.9628210338055307  0.6291351523698624  1.0000
  C   C117      1.0  0.338428392636278  0.509428622018068  0.23330879201605165  1.0000
  C   C118      1.0  0.1615716075907722  0.0094286221183959  0.2666912083475224  1.0000
  C   C119      1.0  0.6615716077404105  0.49057137778127613  0.7666912080698306  1.0000
  C   C120      1.0  0.838428392092209  0.9905713776809483  0.7333087917284181  1.0000
  N   N1        1.0  0.3476680449832015  0.7333008624915159  0.806303668794611  1.0000
  N   N2        1.0  0.15233195520155815  0.23330086259184382  0.6936963312142983  1.0000
  N   N3        1.0  0.6523319546997797  0.26669913730782824  0.19369633128132954  1.0000
  N   N4        1.0  0.8476680450977183  0.7666991372075003  0.306303668230318  1.0000
  O   O1        1.0  0.2282624380515571  0.6518654415963939  0.16787437054023263  1.0000
  O   O2        1.0  0.2717375620980811  0.15186544169672195  0.3321256291820755  1.0000
  O   O3        1.0  0.771737561631424  0.34813455820295014  0.832125629535708  1.0000
  O   O4        1.0  0.7282624382011953  0.8481345581026223  0.6678743702625407  1.0000
  S   S1        1.0  0.49746254235781995  0.1690574228089528  0.9233703667699877  1.0000
  S   S2        1.0  0.002537457826939681  0.6690574227086249  0.5766296332389215  1.0000
  S   S3        1.0  0.5025374580188683  0.8309425778990777  0.07662963331589435  1.0000
  S   S4        1.0  0.9974625418560414  0.3309425779994056  0.4233703668370191  1.0000
  Br  Br1       1.0  0.3824497359335653  0.03325875865055155  0.1523897509458482  1.0000
  Br  Br2       1.0  0.11755026421607288  0.5332587585502235  0.34761024877645996  1.0000
  Br  Br3       1.0  0.617550264443123  0.9667412411487927  0.847610249140034  1.0000
  Br  Br4       1.0  0.8824497361606154  0.4667412412491205  0.6523897513094222  1.0000
