data_image0
_chemical_formula_structural       H48C20N4O8I12
_chemical_formula_sum              "H48 C20 N4 O8 I12"
_cell_length_a       12.635515415926022
_cell_length_b       7.396610355340581
_cell_length_c       13.681045176234123
_cell_angle_alpha    90.0
_cell_angle_beta     102.44159746451844
_cell_angle_gamma    90.0

_space_group_name_H-M_alt    "P 1"
_space_group_IT_number       1

loop_
  _space_group_symop_operation_xyz
  'x, y, z'

loop_
  _atom_site_type_symbol
  _atom_site_label
  _atom_site_symmetry_multiplicity
  _atom_site_fract_x
  _atom_site_fract_y
  _atom_site_fract_z
  _atom_site_occupancy
  H   H1        1.0  0.5642756833260276  0.5000000003149699  0.4508763115329767  1.0000
  H   H2        1.0  0.4357243159489389  0.5000000003149699  0.5491236884226255  1.0000
  H   H3        1.0  0.06427568336886755  0.0  0.45087631134552836  1.0000
  H   H4        1.0  0.9357243166972258  0.0  0.549123688608822  1.0000
  H   H5        1.0  0.38338913505280686  0.3792584028675432  0.22435762926266395  1.0000
  H   H6        1.0  0.6166108650132865  0.3792584028675432  0.7756423706916864  1.0000
  H   H7        1.0  0.883389135009967  0.8792584031825131  0.22435762945011234  1.0000
  H   H8        1.0  0.11661086426499957  0.8792584031825131  0.77564237050549  1.0000
  H   H9        1.0  0.6166108650132865  0.6207415977623967  0.7756423706916864  1.0000
  H   H10       1.0  0.38338913505280686  0.6207415977623967  0.22435762926266395  1.0000
  H   H11       1.0  0.11661086426499957  0.12074159744742669  0.77564237050549  1.0000
  H   H12       1.0  0.883389135009967  0.12074159744742669  0.22435762945011234  1.0000
  H   H13       1.0  0.10688795366384767  0.33407381642266065  0.26050049375731454  1.0000
  H   H14       1.0  0.8931120464022456  0.33407381642266065  0.7394995061970357  1.0000
  H   H15       1.0  0.6068879534450768  0.8340738167376305  0.2605004931962476  1.0000
  H   H16       1.0  0.3931120458298897  0.8340738167376305  0.7394995067593546  1.0000
  H   H17       1.0  0.8931120464022456  0.6659261842072791  0.7394995061970357  1.0000
  H   H18       1.0  0.10688795366384767  0.6659261842072791  0.26050049375731454  1.0000
  H   H19       1.0  0.3931120458298897  0.16592618389230923  0.7394995067593546  1.0000
  H   H20       1.0  0.6068879534450768  0.16592618389230923  0.2605004931962476  1.0000
  H   H21       1.0  0.21992089241884286  0.3363845667770658  0.3659647746911594  1.0000
  H   H22       1.0  0.7800791068561237  0.3363845667770658  0.6340352252644429  1.0000
  H   H23       1.0  0.7199208931671298  0.8363845670920358  0.36596477487735585  1.0000
  H   H24       1.0  0.28007910689896365  0.8363845670920358  0.6340352250769945  1.0000
  H   H25       1.0  0.7800791068561237  0.6636154325009034  0.6340352252644429  1.0000
  H   H26       1.0  0.21992089241884286  0.6636154325009034  0.3659647746911594  1.0000
  H   H27       1.0  0.28007910689896365  0.16361543353790411  0.6340352250769945  1.0000
  H   H28       1.0  0.7199208931671298  0.16361543353790411  0.36596477487735585  1.0000
  H   H29       1.0  0.2292301472428291  0.21493079040619528  0.2537990427238087  1.0000
  H   H30       1.0  0.7707698528232644  0.21493079040619528  0.7462009572305416  1.0000
  H   H31       1.0  0.729230147199989  0.7149307907211652  0.25379904291125704  1.0000
  H   H32       1.0  0.2707698528661043  0.7149307907211652  0.7462009570430932  1.0000
  H   H33       1.0  0.7707698528232644  0.7850692102237445  0.7462009572305416  1.0000
  H   H34       1.0  0.2292301472428291  0.7850692102237445  0.2537990427238087  1.0000
  H   H35       1.0  0.2707698528661043  0.2850692099087746  0.7462009570430932  1.0000
  H   H36       1.0  0.729230147199989  0.2850692099087746  0.25379904291125704  1.0000
  H   H37       1.0  0.22681813466565454  0.37823699040466485  0.1000546399402179  1.0000
  H   H38       1.0  0.7731818654004389  0.37823699040466485  0.8999453600141323  1.0000
  H   H39       1.0  0.7268181344468838  0.8782369893676641  0.10005463937915096  1.0000
  H   H40       1.0  0.27318186561920965  0.8782369893676641  0.8999453605751994  1.0000
  H   H41       1.0  0.7731818654004389  0.6217630102252749  0.8999453600141323  1.0000
  H   H42       1.0  0.22681813466565454  0.6217630102252749  0.1000546399402179  1.0000
  H   H43       1.0  0.27318186561920965  0.12176300991030503  0.8999453605751994  1.0000
  H   H44       1.0  0.7268181344468838  0.12176300991030503  0.10005463937915096  1.0000
  H   H45       1.0  0.10788638780035736  0.5000000003149699  0.11461512860427973  1.0000
  H   H46       1.0  0.8921136122657359  0.5000000003149699  0.8853848713500705  1.0000
  H   H47       1.0  0.6078863877575174  0.0  0.11461512879172811  1.0000
  H   H48       1.0  0.39211361230857594  0.0  0.8853848711626221  1.0000
  C   C1        1.0  0.4186471374329747  0.5000000003149699  0.36931299016507124  1.0000
  C   C2        1.0  0.5813528626331187  0.5000000003149699  0.6306870097892789  1.0000
  C   C3        1.0  0.9186471373901348  0.0  0.3693129903525197  1.0000
  C   C4        1.0  0.0813528618848317  0.0  0.6306870096030825  1.0000
  C   C5        1.0  0.35888341399879653  0.5000000003149699  0.2612361652418928  1.0000
  C   C6        1.0  0.6411165860672969  0.5000000003149699  0.7387638347124575  1.0000
  C   C7        1.0  0.8588834137800256  0.0  0.26123616468082583  1.0000
  C   C8        1.0  0.14111658628606769  0.0  0.7387638352735244  1.0000
  C   C9        1.0  0.19525721576906857  0.33302136541794075  0.2844282837520592  1.0000
  C   C10       1.0  0.8047427842970248  0.33302136541794075  0.7155717162022911  1.0000
  C   C11       1.0  0.6952572157262287  0.8330213657329107  0.28442828393950753  1.0000
  C   C12       1.0  0.3047427843398648  0.8330213657329107  0.7155717160148428  1.0000
  C   C13       1.0  0.8047427842970248  0.6669786352119991  0.7155717162022911  1.0000
  C   C14       1.0  0.19525721576906857  0.6669786352119991  0.2844282837520592  1.0000
  C   C15       1.0  0.3047427843398648  0.16697863489702916  0.7155717160148428  1.0000
  C   C16       1.0  0.6952572157262287  0.16697863489702916  0.28442828393950753  1.0000
  C   C17       1.0  0.19668428835015786  0.5000000003149699  0.13060561824122346  1.0000
  C   C18       1.0  0.8033157118918663  0.5000000003149699  0.8693943824616421  1.0000
  C   C19       1.0  0.696684288131387  0.0  0.13060561768015652  1.0000
  C   C20       1.0  0.30331571193470636  0.0  0.8693943822741937  1.0000
  N   N1        1.0  0.2372384800073059  0.5000000003149699  0.24267737742825296  1.0000
  N   N2        1.0  0.7627615200587875  0.5000000003149699  0.7573226225260974  1.0000
  N   N3        1.0  0.7372384799644659  0.0  0.24267737761570132  1.0000
  N   N4        1.0  0.2627615201016274  0.0  0.757322622338649  1.0000
  O   O1        1.0  0.5238142404506602  0.5000000003149699  0.3762818839570787  1.0000
  O   O2        1.0  0.4761857596154332  0.5000000003149699  0.6237181159972716  1.0000
  O   O3        1.0  0.023814240493500113  0.0  0.37628188376963034  1.0000
  O   O4        1.0  0.9761857595725932  0.0  0.62371811618472  1.0000
  O   O5        1.0  0.3730852272206016  0.5000000003149699  0.4413014082241546  1.0000
  O   O6        1.0  0.6269147728454918  0.5000000003149699  0.5586985917301958  1.0000
  O   O7        1.0  0.8730852271777617  0.0  0.4413014084116029  1.0000
  O   O8        1.0  0.12691477288833175  0.0  0.5586985915427474  1.0000
  I   I1        1.0  0.3738542142737839  0.0  0.15042842841741477  1.0000
  I   I2        1.0  0.6261457850011826  0.0  0.8495715715381874  1.0000
  I   I3        1.0  0.873854215022071  0.5000000003149699  0.15042842860361122  1.0000
  I   I4        1.0  0.12614578504402243  0.5000000003149699  0.849571571350739  1.0000
  I   I5        1.0  0.11073718903697229  0.0  0.04820292084935464  1.0000
  I   I6        1.0  0.889262811029121  0.0  0.9517970791049957  1.0000
  I   I7        1.0  0.6107371889941324  0.5000000003149699  0.04820292103680301  1.0000
  I   I8        1.0  0.38926281107196103  0.5000000003149699  0.9517970789175473  1.0000
  I   I9        1.0  0.45222159427751474  0.0  0.3950825841195506  1.0000
  I   I10       1.0  0.5477784057885786  0.0  0.6049174158347996  1.0000
  I   I11       1.0  0.9522215942346748  0.5000000003149699  0.39508258430699894  1.0000
  I   I12       1.0  0.047778405831418555  0.5000000003149699  0.6049174156473512  1.0000
