data_image0
_chemical_formula_structural       H44C46N8O12S2Cl2
_chemical_formula_sum              "H44 C46 N8 O12 S2 Cl2"
_cell_length_a       6.613119683287286
_cell_length_b       9.507434857535404
_cell_length_c       18.52874461511951
_cell_angle_alpha    84.70545132209871
_cell_angle_beta     89.80001075998018
_cell_angle_gamma    74.45577319711397

_space_group_name_H-M_alt    "P 1"
_space_group_IT_number       1

loop_
  _space_group_symop_operation_xyz
  'x, y, z'

loop_
  _atom_site_type_symbol
  _atom_site_label
  _atom_site_symmetry_multiplicity
  _atom_site_fract_x
  _atom_site_fract_y
  _atom_site_fract_z
  _atom_site_occupancy
  H   H1        1.0  0.19981946213647794  0.13902201403410744  0.045135895346600445  1.0000
  H   H2        1.0  0.8001805373937987  0.860977986283135  0.9548641050239217  1.0000
  H   H3        1.0  0.3772460820696745  0.728646986632261  0.15557613563855013  1.0000
  H   H4        1.0  0.6227539178564958  0.2713530126946134  0.8444238641910161  1.0000
  H   H5        1.0  0.2047523720474128  0.19762805163990907  0.22067229862692556  1.0000
  H   H6        1.0  0.7952476278787575  0.8023719476869656  0.7793277012026406  1.0000
  H   H7        1.0  0.4154456274741697  0.703216389991116  0.3550816036688966  1.0000
  H   H8        1.0  0.5845543735654896  0.2967836103332227  0.644918396701362  1.0000
  H   H9        1.0  0.09780550391744795  0.21143819878971318  0.4838543319429433  1.0000
  H   H10       1.0  0.9021944970876657  0.7885618016362003  0.5161456678851691  1.0000
  H   H11       1.0  0.9037372103454213  0.3136077022759387  0.4167241801795427  1.0000
  H   H12       1.0  0.09626278958074899  0.6863922970509359  0.5832758196500235  1.0000
  H   H13       1.0  0.5934705671850622  0.5375123131410402  0.28245110583883215  1.0000
  H   H14       1.0  0.40652943231066896  0.46248768727777717  0.717548893989544  1.0000
  H   H15       1.0  0.33598629792076495  0.5197400353128173  0.27019707672281384  1.0000
  H   H16       1.0  0.6640137016095115  0.4802599650044254  0.7298029236477083  1.0000
  H   H17       1.0  0.8841646477364963  0.3609191335778902  0.1976598160196243  1.0000
  H   H18       1.0  0.11583535218967397  0.6390808657489845  0.8023401838099419  1.0000
  H   H19       1.0  0.8416855207713345  0.25312066902870745  0.06776409642341724  1.0000
  H   H20       1.0  0.1583144806642184  0.7468793303052633  0.9322359034058854  1.0000
  H   H21       1.0  0.41902010207155604  0.35844165824094165  0.0322715932855073  1.0000
  H   H22       1.0  0.5809798974241751  0.6415583421778757  0.967728406542869  1.0000
  H   H23       1.0  0.801828680959629  0.04159644717188501  0.40558553668000635  1.0000
  H   H24       1.0  0.19817131896654133  0.9584035521549896  0.5944144631495598  1.0000
  H   H25       1.0  0.9561809434869043  0.5880660519881054  0.417645214981881  1.0000
  H   H26       1.0  0.04381905600882688  0.411933948430712  0.5823547848464952  1.0000
  H   H27       1.0  0.9373656697848102  0.5882434808446285  0.2860568180206946  1.0000
  H   H28       1.0  0.06263432971092095  0.4117565195741889  0.7139431818076816  1.0000
  H   H29       1.0  0.7798399235497244  0.06314495696450177  0.2721869395008118  1.0000
  H   H30       1.0  0.22016007594600678  0.9368550434543157  0.7278130603275643  1.0000
  H   H31       1.0  0.6832325851488712  0.0643894590187234  0.16670679798371268  1.0000
  H   H32       1.0  0.3167674143468598  0.9356105414000943  0.8332932018446635  1.0000
  H   H33       1.0  0.009074676578855892  0.6016029179460033  0.17845608067445906  1.0000
  H   H34       1.0  0.990925324856697  0.3983970813879673  0.8215439191548435  1.0000
  H   H35       1.0  0.9804143003619632  0.620443403887599  0.04495049943126578  1.0000
  H   H36       1.0  0.01958569956420707  0.37955659543927556  0.9550495003983003  1.0000
  H   H37       1.0  0.6732967494671522  0.06176258938988041  0.03250678114526589  1.0000
  H   H38       1.0  0.32670325045901816  0.938237409936994  0.9674932186843003  1.0000
  H   H39       1.0  0.29859581533843965  0.6155524008161947  0.47271996066870897  1.0000
  H   H40       1.0  0.7014041841572916  0.38444759960262276  0.5272800391596671  1.0000
  H   H41       1.0  0.3152137513682288  0.43110488451378726  0.5070904202314009  1.0000
  H   H42       1.0  0.6847862481275023  0.5688951159050302  0.49290957959697534  1.0000
  H   H43       1.0  0.4484922657991865  0.6294176629013677  0.5909487754578935  1.0000
  H   H44       1.0  0.551507734161529  0.37058233632393217  0.4090512249138187  1.0000
  C   C1        1.0  0.2629189008435838  0.07691291545897978  0.32536660222765607  1.0000
  C   C2        1.0  0.7370810986521473  0.9230870849598376  0.67463339760072  1.0000
  C   C3        1.0  0.3238070964442077  0.934652582156449  0.3622185684372776  1.0000
  C   C4        1.0  0.6761929030515235  0.0653474182623685  0.6377814313910984  1.0000
  C   C5        1.0  0.24702621554100226  0.08926005245269307  0.2501013309408772  1.0000
  C   C6        1.0  0.7529737843851679  0.9107399468741816  0.7498986688886891  1.0000
  C   C7        1.0  0.287125390691596  0.9672888536927335  0.2104354355660426  1.0000
  C   C8        1.0  0.7128746088041351  0.03271114672608389  0.7895645642623336  1.0000
  C   C9        1.0  0.3667543046099682  0.810958618502194  0.324907647456667  1.0000
  C   C10       1.0  0.6332456949203082  0.18904138181504873  0.675092352913855  1.0000
  C   C11       1.0  0.3513223361392535  0.823349593420023  0.24818739368476508  1.0000
  C   C12       1.0  0.6486776633564777  0.1766504069987943  0.7518126061436111  1.0000
  C   C13       1.0  0.26760618287171933  0.9895642675081713  0.13056253813069454  1.0000
  C   C14       1.0  0.7323938170544511  0.010435731818703279  0.8694374616988716  1.0000
  C   C15       1.0  0.4660206092624843  0.5524082154027664  0.24202334673589163  1.0000
  C   C16       1.0  0.5339793902677923  0.4475917849144762  0.7579766536346305  1.0000
  C   C17       1.0  0.5458931371221483  0.4568530605199094  0.18343762622085247  1.0000
  C   C18       1.0  0.4541068623735829  0.543146939898908  0.8165623736075237  1.0000
  C   C19       1.0  0.7411758308464583  0.37703425981376815  0.16577232838760622  1.0000
  C   C20       1.0  0.25882417062364016  0.6229657394186277  0.8342276719838424  1.0000
  C   C21       1.0  0.718849728094284  0.3220724478600322  0.09750254057637543  1.0000
  C   C22       1.0  0.2811502729108296  0.6779275525658813  0.9024974592517372  1.0000
  C   C23       1.0  0.5112501128326938  0.37154415512238953  0.07812986432316946  1.0000
  C   C24       1.0  0.48874988669758274  0.6284558451948531  0.9218701360473528  1.0000
  C   C25       1.0  0.830717116736992  0.9432200734067284  0.3770253654466061  1.0000
  C   C26       1.0  0.16928288275873912  0.05677992701208911  0.62297463438177  1.0000
  C   C27       1.0  0.9161927929160747  0.6922178676503496  0.3838045800817515  1.0000
  C   C28       1.0  0.08380720808903924  0.3077821327755638  0.6161954197463609  1.0000
  C   C29       1.0  0.9057144431373149  0.6929752430454894  0.30888007900665787  1.0000
  C   C30       1.0  0.09428555635841629  0.30702475737332807  0.6911199208217182  1.0000
  C   C31       1.0  0.8172938950832949  0.9546486957400959  0.3016824113838674  1.0000
  C   C32       1.0  0.18270610444698185  0.045351304577146666  0.6983175889866546  1.0000
  C   C33       1.0  0.8563314352776206  0.8270039067983146  0.2655424898973328  1.0000
  C   C34       1.0  0.14366856425265584  0.17299609351892797  0.7344575104731894  1.0000
  C   C35       1.0  0.8463188067480096  0.8320401169821171  0.18572000515997417  1.0000
  C   C36       1.0  0.15368119274772146  0.16795988343670037  0.814279994668402  1.0000
  C   C37       1.0  0.7527939441981002  0.962688201235222  0.14287308745656946  1.0000
  C   C38       1.0  0.24720605572807017  0.03731179809165247  0.8571269123729968  1.0000
  C   C39       1.0  0.9296088258139369  0.7063828033380903  0.1494793561309572  1.0000
  C   C40       1.0  0.07039117411223346  0.2936171959887843  0.850520643698609  1.0000
  C   C41       1.0  0.91481031724211  0.7159609379954363  0.07444529924675823  1.0000
  C   C42       1.0  0.08518968376300376  0.2840390624304772  0.9255547005813543  1.0000
  C   C43       1.0  0.7442983652960035  0.9630026962541328  0.06807672058408039  1.0000
  C   C44       1.0  0.25570163419972775  0.03699730416468463  0.9319232792442957  1.0000
  C   C45       1.0  0.3853382407066576  0.522834214949013  0.5105980835628329  1.0000
  C   C46       1.0  0.6146617602984561  0.4771657854769005  0.48940191626527974  1.0000
  N   N1        1.0  0.05441580871349646  0.24867607013857237  0.42935004571816293  1.0000
  N   N2        1.0  0.9455841907822348  0.751323930280245  0.5706499541102132  1.0000
  N   N3        1.0  0.39776497184934756  0.704316699977511  0.21080541151316207  1.0000
  N   N4        1.0  0.602235028111368  0.2956832992477887  0.7891945888585501  1.0000
  N   N5        1.0  0.8795933986159694  0.8144435816097207  0.41830850737125436  1.0000
  N   N6        1.0  0.12040660091430719  0.18555641870752185  0.5816914929992678  1.0000
  N   N7        1.0  0.8231196455575639  0.8417634941440094  0.03434476479141391  1.0000
  N   N8        1.0  0.1768803554475499  0.15823650628190408  0.9656552350366987  1.0000
  O   O1        1.0  0.21480646843220547  0.12884250448091336  0.10381122598506491  1.0000
  O   O2        1.0  0.7851935314939649  0.8711574948459611  0.8961887738445014  1.0000
  O   O3        1.0  0.30058026157703394  0.8854166150611676  0.09151522004489757  1.0000
  O   O4        1.0  0.699419739858519  0.11458338427280278  0.908484779784405  1.0000
  O   O5        1.0  0.4257097041279317  0.23598250159013867  0.40097686294595514  1.0000
  O   O6        1.0  0.5742902973076212  0.7640174977438319  0.5990231368833475  1.0000
  O   O7        1.0  0.1371692282015065  0.35882508008013503  0.31100853037641774  1.0000
  O   O8        1.0  0.8628307732340463  0.6411749192538356  0.6889914694528849  1.0000
  O   O9        1.0  0.4021830229710661  0.4539456080725379  0.12996738199693583  1.0000
  O   O10       1.0  0.5978169780685931  0.5460543922518009  0.8700326183733226  1.0000
  O   O11       1.0  0.3633448746847697  0.5598697367762804  0.584190455789458  1.0000
  O   O12       1.0  0.6366551248109615  0.44013026364253705  0.41580954403891807  1.0000
  S   S1        1.0  0.2234469105855267  0.2416144292793342  0.36743257519648276  1.0000
  S   S2        1.0  0.7765530889102045  0.7583855711394831  0.6325674246318934  1.0000
  Cl  Cl1       1.0  0.35044287959791387  0.9101403870917696  0.45516880464784865  1.0000
  Cl  Cl2       1.0  0.6495571218721844  0.08985961214062631  0.5448311957236  1.0000
