data_image0
_chemical_formula_structural       H44C50N8O12S2Cl2
_chemical_formula_sum              "H44 C50 N8 O12 S2 Cl2"
_cell_length_a       6.81033657706618
_cell_length_b       9.903603096917282
_cell_length_c       18.55744424275519
_cell_angle_alpha    83.25864552344602
_cell_angle_beta     89.2749690166724
_cell_angle_gamma    73.42754383915036

_space_group_name_H-M_alt    "P 1"
_space_group_IT_number       1

loop_
  _space_group_symop_operation_xyz
  'x, y, z'

loop_
  _atom_site_type_symbol
  _atom_site_label
  _atom_site_symmetry_multiplicity
  _atom_site_fract_x
  _atom_site_fract_y
  _atom_site_fract_z
  _atom_site_occupancy
  H   H1        1.0  0.8373670599642763  0.35102659641657535  0.018464389175040473  1.0000
  H   H2        1.0  0.16263294035220965  0.6489734040435376  0.9815356110436463  1.0000
  H   H3        1.0  0.6274906556979049  0.7419572610087153  0.8988354669383383  1.0000
  H   H4        1.0  0.37250934502277366  0.25804273852137216  0.10116453273874795  1.0000
  H   H5        1.0  0.8656414673520457  0.28314816409660376  0.8414188621488157  1.0000
  H   H6        1.0  0.1343585319396674  0.7168518353057711  0.15858113807293367  1.0000
  H   H7        1.0  0.6445406532203343  0.7601532306705918  0.7001839059289893  1.0000
  H   H8        1.0  0.3554593470583653  0.23984676991324874  0.29981609374695345  1.0000
  H   H9        1.0  0.7535712624900233  0.2904495426553828  0.5785494006087794  1.0000
  H   H10       1.0  0.24642873826844192  0.7095504567509772  0.421450599611051  1.0000
  H   H11       1.0  0.6451332000467365  0.1869057929881652  0.6450450899593306  1.0000
  H   H12       1.0  0.35486680026974954  0.8130942074719477  0.3549549102593563  1.0000
  H   H13       1.0  0.679919614702488  0.9298514713479893  0.7724566437433336  1.0000
  H   H14       1.0  0.3200803855762115  0.07014852923585128  0.22754335593260913  1.0000
  H   H15       1.0  0.42706278820096233  0.9159442345818846  0.7689685216696426  1.0000
  H   H16       1.0  0.5729372121155237  0.08405576587822826  0.23103147854904435  1.0000
  H   H17       1.0  0.15293040605558217  0.08433365717270691  0.8550703056062741  1.0000
  H   H18       1.0  0.8470695927563655  0.9156663434071486  0.14492969407158746  1.0000
  H   H19       1.0  0.21133889935319872  0.2447710783976079  0.9596553284547774  1.0000
  H   H20       1.0  0.7886611013674798  0.7552289211324797  0.04034467122230892  1.0000
  H   H21       1.0  0.6318914572382826  0.17929711030821066  0.9754414538368524  1.0000
  H   H22       1.0  0.36810854352018246  0.8207028890981494  0.02455854638297795  1.0000
  H   H23       1.0  0.2953388537702077  0.4452137635476099  0.5380661859013511  1.0000
  H   H24       1.0  0.7046611465462781  0.5547862369125031  0.4619338143173358  1.0000
  H   H25       1.0  0.20371832173538035  0.8796185739699494  0.5147678606005055  1.0000
  H   H26       1.0  0.7962816775563326  0.12038142543242555  0.48523213962124384  1.0000
  H   H27       1.0  0.17569358767216114  0.888421353044418  0.6471869096520704  1.0000
  H   H28       1.0  0.8243064116195519  0.11157864635795711  0.3528130905696789  1.0000
  H   H29       1.0  0.2590321366136928  0.43519604149171676  0.6702570251189511  1.0000
  H   H30       1.0  0.7409678626780202  0.5648039579106583  0.3297429751027981  1.0000
  H   H31       1.0  0.34877259080239215  0.4342391302309079  0.7786304335540535  1.0000
  H   H32       1.0  0.651227409514094  0.5657608702292051  0.2213695666646335  1.0000
  H   H33       1.0  0.038979710746545694  0.8861727376581466  0.7499650943914608  1.0000
  H   H34       1.0  0.9610202895699403  0.11382726280196634  0.25003490582722615  1.0000
  H   H35       1.0  0.015400487176264636  0.8737366891161676  0.8834067994383389  1.0000
  H   H36       1.0  0.9845995116734694  0.12626331133996052  0.1165932007822668  1.0000
  H   H37       1.0  0.3133251656459829  0.44436957441018415  0.9118448382976737  1.0000
  H   H38       1.0  0.6866748350746957  0.5556304251199033  0.08815516137941248  1.0000
  H   H39       1.0  0.23886336213479445  0.12014304851542505  0.4035918556447705  1.0000
  H   H40       1.0  0.7611366371569187  0.8798569508869499  0.5964081445769789  1.0000
  H   H41       1.0  0.19442565111266352  0.19310852144986362  0.5277453936670672  1.0000
  H   H42       1.0  0.8055743476992838  0.806891479129992  0.4722546060107944  1.0000
  H   H43       1.0  0.3201732247017221  0.14127408008896153  0.6467746456727103  1.0000
  H   H44       1.0  0.6798267760567431  0.8587259193173984  0.3532253545471201  1.0000
  C   C1        1.0  0.8188634453936304  0.3999504987732498  0.7348552647055206  1.0000
  C   C2        1.0  0.18113655536483475  0.6000495006331102  0.2651447355143097  1.0000
  C   C3        1.0  0.7577929963758729  0.5373777519231787  0.6964144904468726  1.0000
  C   C4        1.0  0.24220700247386107  0.4626222485329495  0.30358550977373305  1.0000
  C   C5        1.0  0.8183415351827565  0.38789732921246867  0.810621189373582  1.0000
  C   C6        1.0  0.18165846513372952  0.6121026712476444  0.18937881084510483  1.0000
  C   C7        1.0  0.7588168446328111  0.5058841589691457  0.8486207380492019  1.0000
  C   C8        1.0  0.2411831561256541  0.494115840437214  0.15137926217062844  1.0000
  C   C9        1.0  0.6950576673583931  0.6566924170313893  0.7321276282578356  1.0000
  C   C10       1.0  0.3049423318955333  0.34330758249471344  0.26787237142116943  1.0000
  C   C11       1.0  0.6921934885246406  0.6451153056924915  0.8089382801532015  1.0000
  C   C12       1.0  0.3078065103250935  0.35488469476363654  0.19106172006740427  1.0000
  C   C13       1.0  0.7622741583706084  0.48674741314003583  0.928890404354793  1.0000
  C   C14       1.0  0.23772584088331805  0.5132525863860667  0.07110959532421213  1.0000
  C   C15       1.0  0.556839439528635  0.9055788130372479  0.8061283439293465  1.0000
  C   C16       1.0  0.44316055932109893  0.09442118741888018  0.1938716562912593  1.0000
  C   C17       1.0  0.4873394054556374  0.011424806921620704  0.85811247028601  1.0000
  C   C18       1.0  0.5126605948608487  0.9885751935384922  0.14188752993267684  1.0000
  C   C19       1.0  0.29732206003028855  0.0873212770241994  0.8777843601808254  1.0000
  C   C20       1.0  0.702677939223638  0.9126787225019032  0.12221563949817964  1.0000
  C   C21       1.0  0.3281857752995231  0.17128203075084472  0.9320394205101528  1.0000
  C   C22       1.0  0.671814225016963  0.8287179697092681  0.06796057970853422  1.0000
  C   C23       1.0  0.5351267661919421  0.14120977908668184  0.9418637097609915  1.0000
  C   C24       1.0  0.4648732345287364  0.8587902204434058  0.058136289916094576  1.0000
  C   C25       1.0  0.2673251032775503  0.5422538000748898  0.5638888696318726  1.0000
  C   C26       1.0  0.7326748970011491  0.45774620050895093  0.43611113004407015  1.0000
  C   C27       1.0  0.21599731945880746  0.7828192042207538  0.5513037116437347  1.0000
  C   C28       1.0  0.7840026808576787  0.21718079623935924  0.44869628857495214  1.0000
  C   C29       1.0  0.19914956210316567  0.7872833924233885  0.62582374123705  1.0000
  C   C30       1.0  0.8008504386552995  0.21271660698297146  0.3741762589827805  1.0000
  C   C31       1.0  0.25112668107562885  0.5365067059476052  0.6388885085450741  1.0000
  C   C32       1.0  0.7488733196828362  0.46349329345875484  0.3611114916747563  1.0000
  C   C33       1.0  0.2154277448913048  0.6613539296659819  0.6718673363861695  1.0000
  C   C34       1.0  0.7845722558293737  0.3386460698641056  0.3281326632909167  1.0000
  C   C35       1.0  0.19611900290985143  0.6599303291386183  0.7513385974333089  1.0000
  C   C36       1.0  0.8038809973688481  0.34006967144522243  0.24866140224263372  1.0000
  C   C37       1.0  0.271502031635565  0.5345567436398002  0.7985563601003464  1.0000
  C   C38       1.0  0.7284979691229001  0.4654432557665598  0.2014436401194841  1.0000
  C   C39       1.0  0.10319791993819097  0.7845542020586387  0.7826541541663594  1.0000
  C   C40       1.0  0.896802080378295  0.2154457984014743  0.21734584605232746  1.0000
  C   C41       1.0  0.08973187416632847  0.779166023849356  0.8576528026303792  1.0000
  C   C42       1.0  0.910268124645619  0.22083397673049968  0.1423471970474824  1.0000
  C   C43       1.0  0.2542427917533232  0.5384526759358721  0.8729544324936584  1.0000
  C   C44       1.0  0.7457572085253763  0.46154732464796855  0.12704556718228427  1.0000
  C   C45       1.0  0.3533397188972585  0.06774604303380918  0.4459803216255855  1.0000
  C   C46       1.0  0.6466602799524754  0.932253957422319  0.5540196785950202  1.0000
  C   C47       1.0  0.3285420576083999  0.10866249216601848  0.5156785354008613  1.0000
  C   C48       1.0  0.6714579416833131  0.8913375072363567  0.4843214648208881  1.0000
  C   C49       1.0  0.4754255638407371  0.04043526178515195  0.5702357164235795  1.0000
  C   C50       1.0  0.5245744369177279  0.9595647376212081  0.42976428379625087  1.0000
  N   N1        1.0  0.7574456718042711  0.23500998090551323  0.6305453369319296  1.0000
  N   N2        1.0  0.2425543284744285  0.7649900196783272  0.36945466274401306  1.0000
  N   N3        1.0  0.6273078876416507  0.7619234476851594  0.8432167339128277  1.0000
  N   N4        1.0  0.3726921126748355  0.23807655277495351  0.1567832663058592  1.0000
  N   N5        1.0  0.24910815124814972  0.6629630489633314  0.5198683411268716  1.0000
  N   N6        1.0  0.7508918480435633  0.33703695043904364  0.48013165909487776  1.0000
  N   N7        1.0  0.16514570750137633  0.6584051192514517  0.9020227883192242  1.0000
  N   N8        1.0  0.8348542927773233  0.3415948813323887  0.0979772113567185  1.0000
  O   O1        1.0  0.8387480666280612  0.35481888959367075  0.9593679409641384  1.0000
  O   O2        1.0  0.1612519326636518  0.6451811098087042  0.04063205925761112  1.0000
  O   O3        1.0  0.6977425851078481  0.5890694924127164  0.964862990720385  1.0000
  O   O4        1.0  0.3022574137040994  0.4109305081671392  0.03513700895747653  1.0000
  O   O5        1.0  0.09816498975064424  0.25872606455781577  0.6551504268287587  1.0000
  O   O6        1.0  0.9018350109700345  0.7412739349722719  0.34484957284832746  1.0000
  O   O7        1.0  0.9302821318924072  0.1255056336086738  0.747740453967232  1.0000
  O   O8        1.0  0.06971786695732676  0.8744943668474541  0.25225954625337377  1.0000
  O   O9        1.0  0.6358185901283842  0.04364559026344662  0.8970818658042581  1.0000
  O   O10       1.0  0.36418140916332903  0.9563544091389282  0.10291813441749119  1.0000
  O   O11       1.0  0.45971161123166915  0.0764336584044921  0.6400411583258085  1.0000
  O   O12       1.0  0.5402883890470302  0.9235663421793485  0.3599588413501342  1.0000
  S   S1        1.0  0.9125674216410005  0.2439999925898431  0.6920753342297814  1.0000
  S   S2        1.0  0.08743257720873347  0.756000007866285  0.30792466599082435  1.0000
  Cl  Cl1       1.0  0.7569247415909485  0.5627738288294059  0.6029350861458262  1.0000
  Cl  Cl2       1.0  0.243075258687751  0.43722617175443473  0.3970649135301163  1.0000
