data_image0
_chemical_formula_structural       H48C48N8O12S2Cl2
_chemical_formula_sum              "H48 C48 N8 O12 S2 Cl2"
_cell_length_a       7.2741966190173555
_cell_length_b       9.303036838399525
_cell_length_c       18.042683457645776
_cell_angle_alpha    80.9757657992479
_cell_angle_beta     82.1703194195017
_cell_angle_gamma    75.51470707886833

_space_group_name_H-M_alt    "P 1"
_space_group_IT_number       1

loop_
  _space_group_symop_operation_xyz
  'x, y, z'

loop_
  _atom_site_type_symbol
  _atom_site_label
  _atom_site_symmetry_multiplicity
  _atom_site_fract_x
  _atom_site_fract_y
  _atom_site_fract_z
  _atom_site_occupancy
  H   H1        1.0  0.5859443414835313  0.6988204327371846  0.7665850295667443  1.0000
  H   H2        1.0  0.4140556585540066  0.30117956692575304  0.2334149703820647  1.0000
  H   H3        1.0  0.38804374776223743  0.47723452654419446  0.9315363498646181  1.0000
  H   H4        1.0  0.6119562521317878  0.52276547297124  0.06846365064828391  1.0000
  H   H5        1.0  0.40726616225036283  0.5426735981309572  0.8341964565316683  1.0000
  H   H6        1.0  0.5927338374297061  0.45732640264163665  0.16580354341928352  1.0000
  H   H7        1.0  0.04726747209360875  0.3416033503608174  0.9666594227065228  1.0000
  H   H8        1.0  0.9527325279439292  0.6583966493021204  0.033340577242286104  1.0000
  H   H9        1.0  0.11042149644502933  0.311934300341022  0.8152794433432893  1.0000
  H   H10       1.0  0.8895785032350397  0.6880657004315719  0.1847205566076625  1.0000
  H   H11       1.0  0.7607985364686138  0.42656989058311046  0.7628238967079278  1.0000
  H   H12       1.0  0.23920146321145488  0.5734301101894834  0.23717610324302396  1.0000
  H   H13       1.0  0.3861479994594709  0.1941057205413195  0.8588643375207164  1.0000
  H   H14       1.0  0.6138520004345545  0.8058942789741149  0.14113566299218558  1.0000
  H   H15       1.0  0.3546823124969213  0.7148589980970937  0.9612457263788046  1.0000
  H   H16       1.0  0.6453176875406166  0.2851410015658441  0.038754273570004334  1.0000
  H   H17       1.0  0.2739230689141934  0.28757706194740995  0.6336524457434239  1.0000
  H   H18       1.0  0.7260769311233445  0.7124229377155278  0.36634755420538495  1.0000
  H   H19       1.0  0.4979204993049679  0.2100037962322723  0.5822625924015826  1.0000
  H   H20       1.0  0.50207950073257  0.7899962034306653  0.4177374075472264  1.0000
  H   H21       1.0  0.20554157812608367  0.11784327591591752  0.04110637614034883  1.0000
  H   H22       1.0  0.7944584219114542  0.8821567237470203  0.9588936238084601  1.0000
  H   H23       1.0  0.04423261135037052  0.577561851416689  0.6141871435342812  1.0000
  H   H24       1.0  0.9557673886871674  0.4224381482462488  0.3858128564145278  1.0000
  H   H25       1.0  0.8076925516024019  0.558046726961335  0.6417521957075023  1.0000
  H   H26       1.0  0.19230744843513584  0.44195327270160284  0.35824780424130664  1.0000
  H   H27       1.0  0.8384313382379622  0.6410511921204329  0.5070116361142364  1.0000
  H   H28       1.0  0.16156866179957555  0.358948807542505  0.49298836383457256  1.0000
  H   H29       1.0  0.8075490292715174  0.45570940751138456  0.5209037650407424  1.0000
  H   H30       1.0  0.19245097076602055  0.5442905921515532  0.4790962349080666  1.0000
  H   H31       1.0  0.9133729341234018  0.31030265330161416  0.6525216185271544  1.0000
  H   H32       1.0  0.08662706577062373  0.6896973462138203  0.34747838198574754  1.0000
  H   H33       1.0  0.9231719696951349  0.6403024677738103  0.8918121653784757  1.0000
  H   H34       1.0  0.07682802984142154  0.35969753285128014  0.10818783513656904  1.0000
  H   H35       1.0  0.08849140489730868  0.6139121172388177  0.7636579928894374  1.0000
  H   H36       1.0  0.9115085951402292  0.3860878824241202  0.2363420070593716  1.0000
  H   H37       1.0  0.3428389831111253  0.6078974805636167  0.6800702482294927  1.0000
  H   H38       1.0  0.6571610169264127  0.39210251909932115  0.3199297517193163  1.0000
  H   H39       1.0  0.4949979596032968  0.6061049450596674  0.549117749201656  1.0000
  H   H40       1.0  0.5050020404342409  0.39389505460327046  0.45088225074715294  1.0000
  H   H41       1.0  0.235481636736055  0.05169937916022217  0.49046314158608806  1.0000
  H   H42       1.0  0.7645183633014827  0.9483006205027158  0.5095368583627209  1.0000
  H   H43       1.0  0.061053940241132004  0.07157394145548374  0.6171120971188868  1.0000
  H   H44       1.0  0.938946059796406  0.928426058207454  0.38288790282992224  1.0000
  H   H45       1.0  0.06685296701143142  0.08881272743554526  0.7374859890798762  1.0000
  H   H46       1.0  0.9331470330261066  0.9111872722273924  0.2625140108689329  1.0000
  H   H47       1.0  0.8938647436251648  0.09368073683960988  0.8673108252612445  1.0000
  H   H48       1.0  0.10613525742915746  0.9063192639344035  0.13268917468974806  1.0000
  C   C1        1.0  0.5609326848669323  0.9332642756359615  0.7396387235319641  1.0000
  C   C2        1.0  0.4390673151706055  0.06673572402697632  0.26036127641684487  1.0000
  C   C3        1.0  0.5362118970801873  0.8067267013329396  0.7874146650444387  1.0000
  C   C4        1.0  0.4637881029573505  0.1932732983299983  0.21258533490437032  1.0000
  C   C5        1.0  0.4502741186955035  0.8162846382739162  0.8623866893504168  1.0000
  C   C6        1.0  0.5497258809845653  0.18371536249867756  0.13761331060053492  1.0000
  C   C7        1.0  0.4636608912379403  0.5434529278578348  0.8875914564661538  1.0000
  C   C8        1.0  0.5363391084421286  0.4565470729147591  0.11240854348479801  1.0000
  C   C9        1.0  0.6712009198800453  0.47058665548828726  0.8792615707091224  1.0000
  C   C10       1.0  0.3287990815317459  0.5294133441760701  0.12073842923972732  1.0000
  C   C11       1.0  0.953856341187784  0.37504490578577654  0.9221708654969599  1.0000
  C   C12       1.0  0.04614365870624157  0.624955093729658  0.07782913501594206  1.0000
  C   C13       1.0  0.978227879515953  0.3598545763678971  0.8472989421470019  1.0000
  C   C14       1.0  0.021772120020603383  0.6401454242571933  0.152701058368043  1.0000
  C   C15       1.0  0.7958100141518007  0.4215704843327502  0.8197057917316998  1.0000
  C   C16       1.0  0.2041899872599904  0.5784295153316074  0.1802942082171498  1.0000
  C   C17       1.0  0.3975418527643127  0.9608818503985407  0.8879923013120874  1.0000
  C   C18       1.0  0.6024581469157563  0.03911815037405314  0.11200769863886437  1.0000
  C   C19       1.0  0.4248510938137252  0.08598681050107915  0.8380132263737392  1.0000
  C   C20       1.0  0.5751489058663437  0.9140131902715146  0.16198677357721264  1.0000
  C   C21       1.0  0.501254327073945  0.07709164180370688  0.7629709101688271  1.0000
  C   C22       1.0  0.49874567246261137  0.9229083588213836  0.2370290903462177  1.0000
  C   C23       1.0  0.3102915038533996  0.9786237309921444  0.9661357257951675  1.0000
  C   C24       1.0  0.6897084960406259  0.02137626852328997  0.03386427471773448  1.0000
  C   C25       1.0  0.9418759277345744  0.5118832287533656  0.6082145756077845  1.0000
  C   C26       1.0  0.05812407180198209  0.4881167718717249  0.3917854249072605  1.0000
  C   C27       1.0  0.9084469191224481  0.5240080644150189  0.525704446932919  1.0000
  C   C28       1.0  0.09155308091508972  0.4759919352479188  0.47429555301589  1.0000
  C   C29       1.0  0.9572527366271003  0.7370099486489846  0.8553573575232477  1.0000
  C   C30       1.0  0.04274726341043775  0.2629900510139531  0.14464264242556124  1.0000
  C   C31       1.0  0.05148259306210278  0.7230324020927618  0.7836734460729533  1.0000
  C   C32       1.0  0.9485174079922195  0.2769675986812517  0.2163265538780391  1.0000
  C   C33       1.0  0.09181917187111636  0.8506328340665167  0.7383431571622163  1.0000
  C   C34       1.0  0.9081808281664215  0.14936716559642124  0.26165684278659274  1.0000
  C   C35       1.0  0.1884479759522158  0.8420917392781714  0.6612186839208632  1.0000
  C   C36       1.0  0.8115520240853221  0.15790826038476638  0.33878131602794564  1.0000
  C   C37       1.0  0.3118923414190009  0.7096163779656804  0.6401153400850443  1.0000
  C   C38       1.0  0.688107658618537  0.29038362169725723  0.35988465986376467  1.0000
  C   C39       1.0  0.3992362949353708  0.7084807059052177  0.5664847685084974  1.0000
  C   C40       1.0  0.6007637047446983  0.291519294867376  0.43351523144245435  1.0000
  C   C41       1.0  0.25544319436301977  0.9548191437553422  0.5337929039781547  1.0000
  C   C42       1.0  0.7445568051735367  0.04518085686974844  0.4662070965368901  1.0000
  C   C43       1.0  0.15972834490210694  0.9666727625970941  0.605542135232886  1.0000
  C   C44       1.0  0.8402716547779618  0.03332723817549968  0.3944578647180657  1.0000
  C   C45       1.0  0.03578160249019566  0.9865289274422374  0.7688876813382003  1.0000
  C   C46       1.0  0.9642183971898732  0.013471073330356423  0.2311123186127515  1.0000
  C   C47       1.0  0.9412764496876305  0.9908758578169979  0.8410907448585022  1.0000
  C   C48       1.0  0.058723550349907505  0.009124141845939841  0.15890925509030676  1.0000
  N   N1        1.0  0.4193633236791106  0.693798001334937  0.9084255453915973  1.0000
  N   N2        1.0  0.5806366763584273  0.3062019983280007  0.09157445455721162  1.0000
  N   N3        1.0  0.4215951997663275  0.26123516475827363  0.6282397425235602  1.0000
  N   N4        1.0  0.5784047999137414  0.7387648360143203  0.37176025742739155  1.0000
  N   N5        1.0  0.9022738086421955  0.8680441804245881  0.8834492243444558  1.0000
  N   N6        1.0  0.09772619103787332  0.13195582034800563  0.11655077560649595  1.0000
  N   N7        1.0  0.3742499639645854  0.8285016210565612  0.5134148654908781  1.0000
  N   N8        1.0  0.6257500360729525  0.17149837860637646  0.4865851344579309  1.0000
  O   O1        1.0  0.7673372700122423  0.4433221739460145  0.9428976021730365  1.0000
  O   O2        1.0  0.2326627296678266  0.5566778268265794  0.057102397777915266  1.0000
  O   O3        1.0  0.4274753738984992  0.36528642046013765  0.745602246339688  1.0000
  O   O4        1.0  0.5725246257815699  0.6347135803124562  0.25439775361126377  1.0000
  O   O5        1.0  0.7276843851064075  0.2269401691893253  0.677701271306127  1.0000
  O   O6        1.0  0.2723156149311302  0.7730598304736126  0.322298728642682  1.0000
  O   O7        1.0  0.2807757097677536  0.11501032530505352  0.9849410761291845  1.0000
  O   O8        1.0  0.7192242902697843  0.8849896743578843  0.015058923819624433  1.0000
  O   O9        1.0  0.2669778573927429  0.8727638364736695  0.01082872226224808  1.0000
  O   O10       1.0  0.7330221440190483  0.12723616319068806  0.9891712776866015  1.0000
  O   O11       1.0  0.020021324414369854  0.3608980896705322  0.6401319146805159  1.0000
  O   O12       1.0  0.979978675623168  0.6391019099924056  0.35986808526829306  1.0000
  S   S1        1.0  0.5251869450885601  0.24326640034811187  0.7029928712866722  1.0000
  S   S2        1.0  0.474813056323231  0.7567335993162454  0.2970071286621775  1.0000
  Cl  Cl1       1.0  0.6709176054429258  0.908267960675924  0.6499082645113872  1.0000
  Cl  Cl2       1.0  0.3290823956113963  0.09173204009808955  0.35009173543960537  1.0000
