data_image0
_chemical_formula_structural       H64C72N16F32Br8
_chemical_formula_sum              "H64 C72 N16 F32 Br8"
_cell_length_a       15.91593235698007
_cell_length_b       12.843527668646619
_cell_length_c       10.080864663354525
_cell_angle_alpha    90.0
_cell_angle_beta     91.20747506653271
_cell_angle_gamma    90.0

_space_group_name_H-M_alt    "P 1"
_space_group_IT_number       1

loop_
  _space_group_symop_operation_xyz
  'x, y, z'

loop_
  _atom_site_type_symbol
  _atom_site_label
  _atom_site_symmetry_multiplicity
  _atom_site_fract_x
  _atom_site_fract_y
  _atom_site_fract_z
  _atom_site_occupancy
  H   H1        1.0  0.9220802096014737  0.5403220095784838  0.15218503431677707  1.0000
  H   H2        1.0  0.07791979081844062  0.040322009915097656  0.34781496538981144  1.0000
  H   H3        1.0  0.07791979071600105  0.4596779905268908  0.8478149657562778  1.0000
  H   H4        1.0  0.9220802094990342  0.9596779901902769  0.6521850346832436  1.0000
  H   H5        1.0  0.983240108519277  0.4284294620575866  0.17824104353504172  1.0000
  H   H6        1.0  0.01675989191302833  0.9284294617209726  0.3217589571637446  1.0000
  H   H7        1.0  0.0167598917981978  0.571570538047788  0.8217589565380131  1.0000
  H   H8        1.0  0.9832401084044464  0.07157053760579955  0.6782410429093104  1.0000
  H   H9        1.0  0.5213688686991588  0.4347946836780897  0.8022387577947349  1.0000
  H   H10       1.0  0.47863113151587644  0.9347946833414759  0.6977612426447865  1.0000
  H   H11       1.0  0.4786311309899974  0.5652053164272848  0.19776124227697447  1.0000
  H   H12       1.0  0.5213688688015983  0.06520531676389868  0.30223875742826845  1.0000
  H   H13       1.0  0.585834643130721  0.5446006790700558  0.832353453396584  1.0000
  H   H14       1.0  0.41416535708431435  0.04460067862806743  0.6676465470429375  1.0000
  H   H15       1.0  0.41416535718675396  0.4553993210353187  0.16764654667647094  1.0000
  H   H16       1.0  0.5858346432331605  0.9553993206987047  0.33235345303011754  1.0000
  H   H17       1.0  0.8177063185455358  0.40610412221345826  0.04446185011491961  1.0000
  H   H18       1.0  0.18229368187437867  0.9061041218768444  0.4555381495916689  1.0000
  H   H19       1.0  0.18229368177193908  0.5938958778919162  0.9555381499581354  1.0000
  H   H20       1.0  0.8177063184430962  0.0938958782285301  0.5444618504813861  1.0000
  H   H21       1.0  0.8741555098565972  0.47340158380650665  0.9212002761244551  1.0000
  H   H22       1.0  0.1258444903460471  0.973401584248495  0.5787997233228687  1.0000
  H   H23       1.0  0.12584449046087767  0.5265984155202655  0.07879972394859998  1.0000
  H   H24       1.0  0.874155509343109  0.026598415856879436  0.4212002767488408  1.0000
  H   H25       1.0  0.6280437283533787  0.49468383172561  0.08342645675560222  1.0000
  H   H26       1.0  0.3719562714382171  0.9946838313889961  0.4165735429496407  1.0000
  H   H27       1.0  0.37195627133577747  0.5053161683797646  0.9165735433161072  1.0000
  H   H28       1.0  0.6280437282509391  0.005316168716378434  0.5834264571220688  1.0000
  H   H29       1.0  0.6247162144426308  0.6327435856924769  0.08794397615642352  1.0000
  H   H30       1.0  0.375283785348965  0.13274358602909075  0.41205602354881943  1.0000
  H   H31       1.0  0.37528378587484407  0.3672564144128977  0.9120560239166314  1.0000
  H   H32       1.0  0.6247162143401912  0.8672564140762837  0.58794397652289  1.0000
  H   H33       1.0  0.7500248035249576  0.6369305007976838  0.21592581714956385  1.0000
  H   H34       1.0  0.24997519627902917  0.13693050113429772  0.28407418354787695  1.0000
  H   H35       1.0  0.2499751961641986  0.36306949930769067  0.7840741829221456  1.0000
  H   H36       1.0  0.7500248034101271  0.8630694989710769  0.7159258165238325  1.0000
  H   H37       1.0  0.7513365641493017  0.49910761477539467  0.217623022672492  1.0000
  H   H38       1.0  0.24866343565468507  0.999107615217383  0.28237697802494877  1.0000
  H   H39       1.0  0.24866343616817313  0.5008923853299798  0.782376977400563  1.0000
  H   H40       1.0  0.7513365640344711  0.0008923848879914265  0.7176230220467607  1.0000
  H   H41       1.0  0.7509864926098286  0.481942008433595  0.7853344775310767  1.0000
  H   H42       1.0  0.2490135076052066  0.9819420088755834  0.7146655229084448  1.0000
  H   H43       1.0  0.24901350770764616  0.5180579916717796  0.21466552254197832  1.0000
  H   H44       1.0  0.7509864927122682  0.018057991229791102  0.28533447716461013  1.0000
  H   H45       1.0  0.6979366923495435  0.4075877387471398  0.9057514369524498  1.0000
  H   H46       1.0  0.30206330785310087  0.907587738410526  0.5942485624948738  1.0000
  H   H47       1.0  0.3020633079679314  0.5924122613582347  0.09424856312060521  1.0000
  H   H48       1.0  0.697936692464374  0.0924122609162463  0.4057514375781811  1.0000
  H   H49       1.0  0.6947336599151784  0.7320688258376888  0.924091280055461  1.0000
  H   H50       1.0  0.30526634028746574  0.23206882539570045  0.5759087193918625  1.0000
  H   H51       1.0  0.3052663404022963  0.2679311742676857  0.07590872001759384  1.0000
  H   H52       1.0  0.6947336600300091  0.7679311747096741  0.4240912806811924  1.0000
  H   H53       1.0  0.7463431709890055  0.6684347245934377  0.7921159968013305  1.0000
  H   H54       1.0  0.2536568292260298  0.16843472493005157  0.7078840036381909  1.0000
  H   H55       1.0  0.25365682932846934  0.3315652755119368  0.20788400327172443  1.0000
  H   H56       1.0  0.7463431704631264  0.831565275175323  0.29211599643351854  1.0000
  H   H57       1.0  0.8720029406091543  0.6615737256316715  0.9185410734273315  1.0000
  H   H58       1.0  0.12799705960588093  0.1615737259682854  0.5814589270121899  1.0000
  H   H59       1.0  0.12799705970832048  0.33842627369510075  0.08145892664572345  1.0000
  H   H60       1.0  0.8720029407115939  0.8384262741370891  0.4185410730608651  1.0000
  H   H61       1.0  0.8228638195710164  0.7306919393267367  0.04794960598693541  1.0000
  H   H62       1.0  0.17713618023297031  0.2306919396633506  0.4520503947105054  1.0000
  H   H63       1.0  0.17713618074645837  0.2693080600000355  0.9520503940861196  1.0000
  H   H64       1.0  0.822863819456186  0.7693080604420239  0.5479496053612041  1.0000
  C   C1        1.0  0.017127449052500885  0.5490372444335658  0.29845443671033145  1.0000
  C   C2        1.0  0.9828725507390949  0.04903724477017972  0.20154556299491153  1.0000
  C   C3        1.0  0.9828725506366554  0.45096275567180866  0.701545563361378  1.0000
  C   C4        1.0  0.01712744895006132  0.9509627553351948  0.7984544370767978  1.0000
  C   C5        1.0  0.045868221131176175  0.6974556314358704  0.44493329529284664  1.0000
  C   C6        1.0  0.9541317792887383  0.19745563099388197  0.055066704413741806  1.0000
  C   C7        1.0  0.9541317791739077  0.3025443686695041  0.5550667037880105  1.0000
  C   C8        1.0  0.04586822102873661  0.8025443691114926  0.944933295659313  1.0000
  C   C9        1.0  0.118780401781652  0.5378132595814983  0.4848535479865064  1.0000
  C   C10       1.0  0.8812195980099438  0.03781325991811218  0.01514645171873655  1.0000
  C   C11       1.0  0.8812195978951133  0.4621867405238762  0.5151464510930052  1.0000
  C   C12       1.0  0.11878040167921244  0.9621867401872624  0.9848535483529728  1.0000
  C   C13       1.0  0.10481273007123698  0.6413868675745252  0.520660028185168  1.0000
  C   C14       1.0  0.8951872695030887  0.1413868679111391  0.97933997126081  1.0000
  C   C15       1.0  0.8951872696179193  0.35861313253084925  0.47933997188654137  1.0000
  C   C16       1.0  0.10481273017367654  0.8586131321942354  0.020660027818701597  1.0000
  C   C17       1.0  0.002791239254011263  0.652421298585716  0.3385727946028041  1.0000
  C   C18       1.0  0.9972087605499754  0.1524212989223298  0.16142720609463665  1.0000
  C   C19       1.0  0.9972087604351451  0.34757870151965864  0.6614272054689053  1.0000
  C   C20       1.0  0.002791239139180734  0.8475787011830447  0.8385727939770727  1.0000
  C   C21       1.0  0.07747475801188614  0.49447237035221875  0.37559062511585783  1.0000
  C   C22       1.0  0.9225252424204192  0.994472370015605  0.12440937558292849  1.0000
  C   C23       1.0  0.9225252423055887  0.5055276297531557  0.6244093749571972  1.0000
  C   C24       1.0  0.07747475789705562  0.005527630089769643  0.8755906244901265  1.0000
  C   C25       1.0  0.4880994887602937  0.560371234888179  0.689439961257322  1.0000
  C   C26       1.0  0.5119005114547416  0.06037123522479282  0.8105600391821994  1.0000
  C   C27       1.0  0.5119005115571812  0.43962876521719557  0.31056003881573296  1.0000
  C   C28       1.0  0.48809948886273324  0.9396287648805818  0.18943996089085557  1.0000
  C   C29       1.0  0.42397124970343764  0.5105854348730513  0.6142512921688223  1.0000
  C   C30       1.0  0.5760287504992067  0.010585435209665114  0.8857487072785013  1.0000
  C   C31       1.0  0.5760287506140371  0.4894145652323233  0.38574870790423255  1.0000
  C   C32       1.0  0.4239712498182682  0.9894145648957093  0.11425129279455373  1.0000
  C   C33       1.0  0.3783081593323417  0.5603404435035841  0.5140665428636202  1.0000
  C   C34       1.0  0.621691840254375  0.06034044384019797  0.9859334575745556  1.0000
  C   C35       1.0  0.6216918403568146  0.43965955660179046  0.4859334572080892  1.0000
  C   C36       1.0  0.37830815943478124  0.9396595562651765  0.014066542497153741  1.0000
  C   C37       1.0  0.45531345466873663  0.7161580562055374  0.5584462270470928  1.0000
  C   C38       1.0  0.5446865449055891  0.21615805654215126  0.9415537723988854  1.0000
  C   C39       1.0  0.5446865450204196  0.2838419438998372  0.4415537730246167  1.0000
  C   C40       1.0  0.45531345478356716  0.7838419435632232  0.05844622767282408  1.0000
  C   C41       1.0  0.5021234873231103  0.6653969711812467  0.656234315761114  1.0000
  C   C42       1.0  0.49787651289192497  0.16539697151786065  0.8437656846784075  1.0000
  C   C43       1.0  0.4978765123660459  0.33460302892412774  0.34376568431059534  1.0000
  C   C44       1.0  0.5021234874255499  0.8346030285875139  0.1562343153946476  1.0000
  C   C45       1.0  0.3923510234692395  0.6652699102956317  0.48509501877214667  1.0000
  C   C46       1.0  0.6076489769506748  0.16526990985364326  0.014904980934441824  1.0000
  C   C47       1.0  0.6076489768358443  0.3347300898097429  0.5149049803087105  1.0000
  C   C48       1.0  0.3923510233668  0.8347300902517313  0.9850950191386131  1.0000
  C   C49       1.0  0.8168909021206949  0.47512371814300947  0.9800089481698162  1.0000
  C   C50       1.0  0.18310909809434026  0.9751237185849979  0.5199910522697051  1.0000
  C   C51       1.0  0.1831090975684612  0.5248762811837627  0.019991051901893004  1.0000
  C   C52       1.0  0.8168909022231345  0.02487628152037664  0.4800089478033499  1.0000
  C   C53       1.0  0.6647340222051336  0.5656969796340698  0.06626040206480603  1.0000
  C   C54       1.0  0.3352659775988532  0.06569697997068379  0.43373959863263467  1.0000
  C   C55       1.0  0.33526597811234127  0.4343030204713046  0.9337395980082488  1.0000
  C   C56       1.0  0.6647340220903031  0.9343030201346908  0.5662604014390747  1.0000
  C   C57       1.0  0.7468064420021341  0.5674639131888906  0.15254790671317223  1.0000
  C   C58       1.0  0.2531935578018527  0.0674639135255045  0.3474520939842685  1.0000
  C   C59       1.0  0.25319355831534074  0.4325360869164839  0.8474520933598827  1.0000
  C   C60       1.0  0.7468064418873035  0.9325360865798701  0.6525479060874408  1.0000
  C   C61       1.0  0.7362900038818667  0.4776533868476064  0.8910913761995837  1.0000
  C   C62       1.0  0.2637099963207776  0.9776533865109925  0.60890862324774  1.0000
  C   C63       1.0  0.2637099964356081  0.5223466132577681  0.10890862387347136  1.0000
  C   C64       1.0  0.7362900039966972  0.022346612815779723  0.391091376825315  1.0000
  C   C65       1.0  0.7338644053763274  0.6647055676798802  0.8988372460184578  1.0000
  C   C66       1.0  0.2661355948263169  0.16470556801649414  0.6011627534288657  1.0000
  C   C67       1.0  0.2661355943128288  0.3352944324254943  0.10116275405325151  1.0000
  C   C68       1.0  0.733864405491158  0.8352944320888804  0.39883724664418924  1.0000
  C   C69       1.0  0.8172490513891534  0.6624696259089831  0.9826330804984792  1.0000
  C   C70       1.0  0.1827509488258819  0.162469626245597  0.5173669199410423  1.0000
  C   C71       1.0  0.18275094892832144  0.33753037419639137  0.01736691957457591  1.0000
  C   C72       1.0  0.8172490514915929  0.8375303738597776  0.4826330801320126  1.0000
  N   N1        1.0  0.9769509615844657  0.5062435529977053  0.19164527397115386  1.0000
  N   N2        1.0  0.023049038207130085  0.006243553334319239  0.3083547257340891  1.0000
  N   N3        1.0  0.023049038104690528  0.49375644710766914  0.8083547261005555  1.0000
  N   N4        1.0  0.9769509614820261  0.9937564467710553  0.6916452743376204  1.0000
  N   N5        1.0  0.5326824577425805  0.5112503892547705  0.7863649572872868  1.0000
  N   N6        1.0  0.4673175418317452  0.011250388812782154  0.7136350421586911  1.0000
  N   N7        1.0  0.46731754194657565  0.488749610850604  0.21363504278442255  1.0000
  N   N8        1.0  0.5326824578574111  0.9887496112925923  0.28636495791301825  1.0000
  N   N9        1.0  0.820567539946033  0.56809334306272  0.0662887100640476  1.0000
  N   N10       1.0  0.17943245984556275  0.06809334339933386  0.4337112896411953  1.0000
  N   N11       1.0  0.17943246037144178  0.4319066570426546  0.9337112900090073  1.0000
  N   N12       1.0  0.8205675398435934  0.9319066567060408  0.5662887104305141  1.0000
  N   N13       1.0  0.6847739692094278  0.5694324307685055  0.9239857893499517  1.0000
  N   N14       1.0  0.31522603037728886  0.06943243032651703  0.5760142110882241  1.0000
  N   N15       1.0  0.3152260304797284  0.43056756933686907  0.07601421072175765  1.0000
  N   N16       1.0  0.6847739693118674  0.9305675690002552  0.4239857889834853  1.0000
  F   F1        1.0  0.029847436590227174  0.7985004645597245  0.4746343339928751  1.0000
  F   F2        1.0  0.9701525632137596  0.2985004648963383  0.02536566670456572  1.0000
  F   F3        1.0  0.9701525637272477  0.2014995355456501  0.5253656660801799  1.0000
  F   F4        1.0  0.02984743647539664  0.7014995352090362  0.9746343333671437  1.0000
  F   F5        1.0  0.17113513811903075  0.4770130316265033  0.5581787021046605  1.0000
  F   F6        1.0  0.8288648620836137  0.9770130312898894  0.9418212973426632  1.0000
  F   F7        1.0  0.828864862198444  0.5229869684788713  0.4418212979683944  1.0000
  F   F8        1.0  0.17113513823386128  0.022986968036882823  0.058178702730391815  1.0000
  F   F9        1.0  0.9456242409241126  0.7100171203166742  0.2685909724470441  1.0000
  F   F10       1.0  0.05437575887987414  0.210017120653288  0.2314090282503966  1.0000
  F   F11       1.0  0.05437575876504362  0.2899828797887004  0.7314090276246653  1.0000
  F   F12       1.0  0.9456242414376007  0.7899828794520865  0.7685909718226583  1.0000
  F   F13       1.0  0.09339950283278789  0.39352219502265345  0.3429629050880442  1.0000
  F   F14       1.0  0.9066004969711988  0.8935221954646418  0.15703709560939652  1.0000
  F   F15       1.0  0.9066004968563683  0.6064778043041188  0.6570370949836651  1.0000
  F   F16       1.0  0.09339950271795736  0.10647780464073271  0.8429629044623128  1.0000
  F   F17       1.0  0.40906581180443935  0.40791498762365064  0.6387820175748808  1.0000
  F   F18       1.0  0.5909341877822772  0.907914988065639  0.861217982863295  1.0000
  F   F19       1.0  0.5909341878847169  0.5920850124817238  0.3612179824968285  1.0000
  F   F20       1.0  0.4090658119068789  0.0920850120397355  0.13878201720841443  1.0000
  F   F21       1.0  0.32137751380718743  0.5046619337943156  0.442433370490996  1.0000
  F   F22       1.0  0.6786224866251179  0.004661934130929417  0.05756663020779027  1.0000
  F   F23       1.0  0.6786224865102874  0.49533806631105903  0.5575666295820589  1.0000
  F   F24       1.0  0.32137751369235684  0.9953380659744451  0.9424333698652646  1.0000
  F   F25       1.0  0.4713959355337517  0.8183744872258738  0.5348462967460166  1.0000
  F   F26       1.0  0.5286040640405739  0.3183744875624877  0.9651537026999616  1.0000
  F   F27       1.0  0.5286040641554045  0.18162551287950068  0.4651537033256929  1.0000
  F   F28       1.0  0.47139593564858223  0.6816255125428868  0.03484629737174794  1.0000
  F   F29       1.0  0.5628822951894634  0.718722772134823  0.7247518249964576  1.0000
  F   F30       1.0  0.4371177050255718  0.2187227716928347  0.7752481754430638  1.0000
  F   F31       1.0  0.4371177051280113  0.28127722797055144  0.27524817507659727  1.0000
  F   F32       1.0  0.562882295291903  0.7812772284125399  0.2247518246299912  1.0000
  Br  Br1       1.0  0.16126406386210915  0.7034489342095241  0.6665460254444779  1.0000
  Br  Br2       1.0  0.8387359363405351  0.20344893376753584  0.8334539740028457  1.0000
  Br  Br3       1.0  0.838735935827047  0.2965510658958503  0.3334539746272314  1.0000
  Br  Br4       1.0  0.16126406397693968  0.7965510663378387  0.16654602607020932  1.0000
  Br  Br5       1.0  0.331137178668669  0.7357686387883008  0.3506598434134442  1.0000
  Br  Br6       1.0  0.6688628211229267  0.23576863912491458  0.14934015629179875  1.0000
  Br  Br7       1.0  0.6688628210204872  0.26423136131707387  0.6493401566582653  1.0000
  Br  Br8       1.0  0.33113717855383845  0.76423136098046  0.8506598427877128  1.0000
