data_image0
_chemical_formula_structural       H48C88N16F32Br8
_chemical_formula_sum              "H48 C88 N16 F32 Br8"
_cell_length_a       8.195009128274888
_cell_length_b       12.801774979752176
_cell_length_c       22.521159047575942
_cell_angle_alpha    100.26793986785052
_cell_angle_beta     97.60365191289303
_cell_angle_gamma    106.36727996543868

_space_group_name_H-M_alt    "P 1"
_space_group_IT_number       1

loop_
  _space_group_symop_operation_xyz
  'x, y, z'

loop_
  _atom_site_type_symbol
  _atom_site_label
  _atom_site_symmetry_multiplicity
  _atom_site_fract_x
  _atom_site_fract_y
  _atom_site_fract_z
  _atom_site_occupancy
  H   H1        1.0  0.14928778036565432  0.567427671318179  0.4147453815635625  1.0000
  H   H2        1.0  0.8507122196144802  0.432572328074032  0.5852546183316516  1.0000
  H   H3        1.0  0.9599243286925851  0.45633024735266015  0.38177705395462974  1.0000
  H   H4        1.0  0.0400756719063668  0.5436697530422795  0.6182229464011197  1.0000
  H   H5        1.0  0.7231704956093683  0.0655924403668512  0.4472455337146171  1.0000
  H   H6        1.0  0.27682950473518037  0.9344075598397338  0.5527544661812023  1.0000
  H   H7        1.0  0.677209058813047  0.9540749063632937  0.4843475639938873  1.0000
  H   H8        1.0  0.32279094153150173  0.04592509384329136  0.515652435901932  1.0000
  H   H9        1.0  0.17422996527272785  0.6732724548896833  0.88091513386554  1.0000
  H   H10       1.0  0.8257700353262241  0.32672754550525634  0.11908486649020951  1.0000
  H   H11       1.0  0.13495961771725556  0.5542016073698619  0.9120025095696407  1.0000
  H   H12       1.0  0.8650403826272931  0.44579839283672307  0.08799749032617851  1.0000
  H   H13       1.0  0.9003230827878839  0.16013682127331977  0.9839002516768319  1.0000
  H   H14       1.0  0.09967691755666497  0.8398631789332652  0.016099748218987343  1.0000
  H   H15       1.0  0.7173793589560448  0.04502848501633317  0.9480545763079802  1.0000
  H   H16       1.0  0.28262064138850396  0.9549715151902518  0.05194542358783925  1.0000
  H   H17       1.0  0.1250633552284509  0.9745686834368362  0.6644017224482078  1.0000
  H   H18       1.0  0.8749366447516836  0.025431315955374786  0.3355982774470063  1.0000
  H   H19       1.0  0.640788542119791  0.7056104671516835  0.6295434064701412  1.0000
  H   H20       1.0  0.35921145700707047  0.29438953305936394  0.37045659342728005  1.0000
  H   H21       1.0  0.007755939957397805  0.0337490105429681  0.5735263043641986  1.0000
  H   H22       1.0  0.9922440591694638  0.9662509896680794  0.4264736955332226  1.0000
  H   H23       1.0  0.7937405123525351  0.6233545848036038  0.6789631907197358  1.0000
  H   H24       1.0  0.20625948799201396  0.3766454154029812  0.3210368091760836  1.0000
  H   H25       1.0  0.9053071527624167  0.5681497201403037  0.7719500401072813  1.0000
  H   H26       1.0  0.09469284758213219  0.43185028006628134  0.2280499597885382  1.0000
  H   H27       1.0  0.13575719659284535  0.9593329450694081  0.7597848496071868  1.0000
  H   H28       1.0  0.8642428037517035  0.04066705513717687  0.24021515028863238  1.0000
  H   H29       1.0  0.5458572745461889  0.77522329151123  0.5400680551373714  1.0000
  H   H30       1.0  0.45414272421625834  0.2247767078854434  0.45993194475944454  1.0000
  H   H31       1.0  0.23546601351734392  0.8888963824133742  0.8484094838508521  1.0000
  H   H32       1.0  0.7645339868272051  0.1111036177932109  0.15159051604496732  1.0000
  H   H33       1.0  0.6306770964372809  0.48699328894876637  0.18610505621974932  1.0000
  H   H34       1.0  0.36932290354285363  0.5130067104434445  0.8138949436754648  1.0000
  H   H35       1.0  0.38441152335987744  0.45013668265992235  0.13193582052113131  1.0000
  H   H36       1.0  0.6155884772390745  0.5498633177350173  0.8680641798346181  1.0000
  H   H37       1.0  0.04201464919304187  0.05348935997579755  0.0728668121964391  1.0000
  H   H38       1.0  0.957985351151507  0.9465106402307876  0.9271331876993804  1.0000
  H   H39       1.0  0.1434480708045902  0.37358719083805036  0.04303272057036482  1.0000
  H   H40       1.0  0.8565519295399585  0.6264128093685346  0.9569672793254544  1.0000
  H   H41       1.0  0.2834662674897728  0.1148528768146328  0.16198706774778743  1.0000
  H   H42       1.0  0.7165337328547761  0.8851471233919522  0.838012932148032  1.0000
  H   H43       1.0  0.6576034964591234  0.2669192052684677  0.3418241397571063  1.0000
  H   H44       1.0  0.3423965035210111  0.7330807941237432  0.6581758601381077  1.0000
  H   H45       1.0  0.8566098485920822  0.5541302769741652  0.2804318429194351  1.0000
  H   H46       1.0  0.1433901520068697  0.4458697234207744  0.7195681574363143  1.0000
  H   H47       1.0  0.41750808498357783  0.18959417202820078  0.25243729322257574  1.0000
  H   H48       1.0  0.5824919153609711  0.8104058281783844  0.7475627066732436  1.0000
  C   C1        1.0  0.2110530682137835  0.33934410030446555  0.5571902857979786  1.0000
  C   C2        1.0  0.788946931766351  0.6606558990877454  0.44280971409723546  1.0000
  C   C3        1.0  0.013353056084484434  0.33653414589576924  0.46613273769160385  1.0000
  C   C4        1.0  0.9866469442600643  0.6634658543108158  0.5338672622042154  1.0000
  C   C5        1.0  0.05863577358436157  0.287809817457948  0.5134114894851579  1.0000
  C   C6        1.0  0.9413642257969033  0.7121901829414542  0.4865885108721936  1.0000
  C   C7        1.0  0.26776994521680303  0.49202882166868445  0.5052442315623067  1.0000
  C   C8        1.0  0.7322300551277459  0.5079711785379006  0.49475576833351265  1.0000
  C   C9        1.0  0.1170980687774439  0.44035427786653664  0.4594059502246409  1.0000
  C   C10       1.0  0.882901931567105  0.5596457223400484  0.5405940496711784  1.0000
  C   C11       1.0  0.3145904499800408  0.4436035659607623  0.5523915120934437  1.0000
  C   C12       1.0  0.685409550364508  0.5563964342458227  0.4476084878023756  1.0000
  C   C13       1.0  0.18703213693497311  0.8460032716419869  0.31272151589485936  1.0000
  C   C14       1.0  0.812967863663979  0.15399672875295292  0.6872784844608901  1.0000
  C   C15       1.0  0.22321112167588403  0.7943417064835284  0.360121260704232  1.0000
  C   C16       1.0  0.7767888786686649  0.2056582937230566  0.6398787391915873  1.0000
  C   C17       1.0  0.31032449290653086  0.9459097951015965  0.3113681740281556  1.0000
  C   C18       1.0  0.689675507438018  0.054090205104988506  0.6886318258676637  1.0000
  C   C19       1.0  0.49848112455167287  0.9421451356919736  0.4049946017318049  1.0000
  C   C20       1.0  0.5015188754284617  0.057854863700237215  0.5950053981634091  1.0000
  C   C21       1.0  0.3723605626237559  0.841348611270241  0.4051105723776782  1.0000
  C   C22       1.0  0.627639437720793  0.15865138893634417  0.5948894275181411  1.0000
  C   C23       1.0  0.46145224268843843  0.9906827321326335  0.3554207972790802  1.0000
  C   C24       1.0  0.538547757291696  0.009317267259577345  0.6445792026161339  1.0000
  C   C25       1.0  0.5992600812622721  0.840177979066828  0.015474084462488807  1.0000
  C   C26       1.0  0.40073991871786246  0.159822020325383  0.9845259154327253  1.0000
  C   C27       1.0  0.6434636053376237  0.7823968211618613  0.05877191302409666  1.0000
  C   C28       1.0  0.35653639378923774  0.21760317904918625  0.9412280868733245  1.0000
  C   C29       1.0  0.53907989698208  0.6724551859468523  0.05211902777820195  1.0000
  C   C30       1.0  0.4609201033624688  0.32754481425973275  0.9478809721176173  1.0000
  C   C31       1.0  0.351474050847658  0.679807261107137  0.959211656243146  1.0000
  C   C32       1.0  0.6485259494968909  0.32019273909944795  0.04078834365267335  1.0000
  C   C33       1.0  0.45860190994300665  0.7906746511694424  0.9673096803316092  1.0000
  C   C34       1.0  0.5413980894382581  0.20932534922995982  0.03269032002574226  1.0000
  C   C35       1.0  0.3977611110021489  0.6236527894245282  0.00400893454763602  1.0000
  C   C36       1.0  0.6022388877602983  0.37634720997214516  0.9959910653491799  1.0000
  C   C37       1.0  0.7513242559370519  0.17201412645377517  0.9031389370392959  1.0000
  C   C38       1.0  0.24867574282539542  0.8279858729428983  0.09686106285751998  1.0000
  C   C39       1.0  0.6088615342060274  0.11775842616651759  0.8542107297861864  1.0000
  C   C40       1.0  0.39113846492083415  0.88224157404453  0.1457892701112348  1.0000
  C   C41       1.0  0.6469112916467833  0.28012183764892296  0.8101283296766087  1.0000
  C   C42       1.0  0.35308870869776554  0.7198781625576621  0.18987167021921061  1.0000
  C   C43       1.0  0.840228730765149  0.28322636792549566  0.9025024428508743  1.0000
  C   C44       1.0  0.1597712679972981  0.7167736314711777  0.09749755704594168  1.0000
  C   C45       1.0  0.5567910365805719  0.16950175526003466  0.8094075319195406  1.0000
  C   C46       1.0  0.44320896339956256  0.8304982441321762  0.19059246797567345  1.0000
  C   C47       1.0  0.7900277317640425  0.33507417619645935  0.8574747509724385  1.0000
  C   C48       1.0  0.20997226858050652  0.6649258240101258  0.1425252489233808  1.0000
  C   C49       1.0  0.994462919293218  0.9283428199727514  0.6387473579000983  1.0000
  C   C50       1.0  0.005537081051330874  0.07165718023383362  0.361252641995721  1.0000
  C   C51       1.0  0.728120391413864  0.7784699001112318  0.6190616180142415  1.0000
  C   C52       1.0  0.2718796085662705  0.2215300992809791  0.3809383818809726  1.0000
  C   C53       1.0  0.8924340152351151  0.8347994588735171  0.6560406074139418  1.0000
  C   C54       1.0  0.10756598510943367  0.16520054133306786  0.3439593924818775  1.0000
  C   C55       1.0  0.9545080287049011  0.7973708924197304  0.7106129945750181  1.0000
  C   C56       1.0  0.04549197031194927  0.20262910716529767  0.289387005781728  1.0000
  C   C57       1.0  0.9292275171309833  0.9612105288146972  0.5872989176220892  1.0000
  C   C58       1.0  0.07077248225028146  0.038789471584704985  0.4127010827352623  1.0000
  C   C59       1.0  0.8893552582082948  0.6862441927783086  0.7158261174940128  1.0000
  C   C60       1.0  0.11064474213625411  0.31375580742827647  0.2841738824018066  1.0000
  C   C61       1.0  0.953973444967175  0.6546612823553508  0.7677887739710544  1.0000
  C   C62       1.0  0.04602655379527235  0.3453387170413226  0.23221122592576163  1.0000
  C   C63       1.0  0.08130350298094323  0.8712947774220694  0.7597242064283395  1.0000
  C   C64       1.0  0.9186964961459183  0.12870522278897809  0.24027579346908168  1.0000
  C   C65       1.0  0.6737035973527536  0.8175243547246278  0.5685985020644773  1.0000
  C   C66       1.0  0.3262964032461983  0.18247564567031185  0.4314014982912723  1.0000
  C   C67       1.0  0.1376368448381608  0.8320996366972606  0.8099386814850312  1.0000
  C   C68       1.0  0.862363155506388  0.1679003635093243  0.19006131841078808  1.0000
  C   C69       1.0  0.49989797382909307  0.331706387911539  0.21041957965848176  1.0000
  C   C70       1.0  0.5001020265154558  0.668293612295046  0.7895804202373377  1.0000
  C   C71       1.0  0.35747709661718263  0.28945098654484985  0.15609764402593204  1.0000
  C   C72       1.0  0.6425229033629518  0.710549012847361  0.8439023558692819  1.0000
  C   C73       1.0  0.6282949231125896  0.43562949516293686  0.2198390088688947  1.0000
  C   C74       1.0  0.3717050768675449  0.564370504229274  0.7801609910263193  1.0000
  C   C75       1.0  0.3146175112554196  0.3610087310353465  0.12061905088908084  1.0000
  C   C76       1.0  0.685382488724715  0.6389912683568645  0.8793809490061332  1.0000
  C   C77       1.0  0.12146672602112597  0.14120134748845528  0.0869486967215624  1.0000
  C   C78       1.0  0.8785332739590087  0.8587986519037557  0.9130513031736518  1.0000
  C   C79       1.0  0.17766401011578423  0.318334584122433  0.07046723243696693  1.0000
  C   C80       1.0  0.8223359902287645  0.681665416084152  0.9295327674588524  1.0000
  C   C81       1.0  0.2565870342226618  0.17632819876988953  0.13775199224766174  1.0000
  C   C82       1.0  0.7434129661218871  0.8236718014366956  0.8622480076481577  1.0000
  C   C83       1.0  0.6468392341125142  0.31412784770682717  0.3066586288037841  1.0000
  C   C84       1.0  0.3531607662320346  0.6858721524997579  0.6933413710920353  1.0000
  C   C85       1.0  0.7571355126394587  0.47315146144157993  0.27264024970090006  1.0000
  C   C86       1.0  0.24286448648740294  0.5268485387694677  0.7273597501965212  1.0000
  C   C87       1.0  0.5122058653183866  0.2704451233926188  0.25569044626619636  1.0000
  C   C88       1.0  0.4877941350261622  0.7295548768139662  0.7443095536296229  1.0000
  N   N1        1.0  0.07811639302258795  0.4875318017032307  0.41234907201642523  1.0000
  N   N2        1.0  0.9218836073219608  0.5124681985033543  0.5876509278793941  1.0000
  N   N3        1.0  0.6449046002113943  0.9893071843967025  0.44819451204527855  1.0000
  N   N4        1.0  0.35509539976874027  0.010692814995508467  0.5518054878499355  1.0000
  N   N5        1.0  0.2151475479737768  0.630412889355614  0.9118895001993669  1.0000
  N   N6        1.0  0.7848524526251752  0.3695871110393255  0.0881105001563826  1.0000
  N   N7        1.0  0.7988214493889932  0.12001193642250331  0.9465669536104099  1.0000
  N   N8        1.0  0.2011785512099586  0.8799880639724363  0.05343304674533951  1.0000
  N   N9        1.0  0.7709893535569395  0.9075857013277474  0.5523265553363228  1.0000
  N   N10       1.0  0.2290106464231951  0.09241429806446355  0.4476734445588913  1.0000
  N   N11       1.0  0.07707025258443556  0.7252633143501134  0.8144270688117021  1.0000
  N   N12       1.0  0.9229297480145163  0.2747366860448262  0.1855729315440474  1.0000
  N   N13       1.0  0.0809518354330783  0.2101311021469672  0.0531273543712057  1.0000
  N   N14       1.0  0.9190481651658736  0.7898688982479724  0.9468726459845438  1.0000
  N   N15       1.0  0.7681072651372058  0.4142114968803207  0.31597895474009224  1.0000
  N   N16       1.0  0.23189273546174613  0.585788503514619  0.6840210456156572  1.0000
  F   F1        1.0  0.9508767918197524  0.18738086232259862  0.5164528633762061  1.0000
  F   F2        1.0  0.04912320852479664  0.8126191378839865  0.48354713651961334  1.0000
  F   F3        1.0  0.8628010807383085  0.2821758198926596  0.42467585754816023  1.0000
  F   F4        1.0  0.13719891864295614  0.7178241805067425  0.5753241428091911  1.0000
  F   F5        1.0  0.4635781058898902  0.4987507303474207  0.5937570292811855  1.0000
  F   F6        1.0  0.5364218943446475  0.5012492692331448  0.4062429710739588  1.0000
  F   F7        1.0  0.37056526401675527  0.5944370947174704  0.5022664434649832  1.0000
  F   F8        1.0  0.629434734745692  0.4055629046792031  0.49773355643183287  1.0000
  F   F9        1.0  0.3973767930620238  0.7874883894781067  0.4507283280235292  1.0000
  F   F10       1.0  0.6026232071725139  0.21251161010245884  0.5492716723316151  1.0000
  F   F11       1.0  0.11173801521137976  0.6948292555680488  0.36270316981331857  1.0000
  F   F12       1.0  0.8882619839154817  0.3051707446429988  0.6372968300841028  1.0000
  F   F13       1.0  0.28420071103369243  0.99997765813064  0.26606383260851135  1.0000
  F   F14       1.0  0.7157992893108566  2.2342075945180924e-05  0.733936167287308  1.0000
  F   F15       1.0  0.5812295328519486  0.08660322638072966  0.3517255207509214  1.0000
  F   F16       1.0  0.41877046749260033  0.9133967738258554  0.6482744791448979  1.0000
  F   F17       1.0  0.5730426732259404  0.6124591221009189  0.09345258470290171  1.0000
  F   F18       1.0  0.42695732711860845  0.38754087810566606  0.9065474151929175  1.0000
  F   F19       1.0  0.694307869691413  0.9482577819634601  0.020703893681077574  1.0000
  F   F20       1.0  0.30569212943544843  0.051742218247587256  0.9792961062163437  1.0000
  F   F21       1.0  0.42042761755339886  0.8514591779802385  0.9268185604014413  1.0000
  F   F22       1.0  0.57957238279115  0.1485408222263466  0.07318143949437812  1.0000
  F   F23       1.0  0.29630238149865856  0.5170477271368574  0.9997413284819324  1.0000
  F   F24       1.0  0.7036976188458902  0.4829522730697277  0.00025867141388691945  1.0000
  F   F25       1.0  0.9789371573465294  0.3426285236912184  0.9480697268420124  1.0000
  F   F26       1.0  0.02106284325242255  0.6573714767037211  0.05193027351373691  1.0000
  F   F27       1.0  0.41750250114850757  0.11076545031386997  0.7642922032626698  1.0000
  F   F28       1.0  0.5824974991960412  0.889234549892715  0.23570779663314959  1.0000
  F   F29       1.0  0.5190128555081894  0.009390499801795639  0.851751018522637  1.0000
  F   F30       1.0  0.48098714483635935  0.9906095004047893  0.14824898137318235  1.0000
  F   F31       1.0  0.8832985136278071  0.44267965700626466  0.8603561350955972  1.0000
  F   F32       1.0  0.11670148635232747  0.5573203423859463  0.139643864799617  1.0000
  Br  Br1       1.0  0.2766534728526605  0.27171281525939295  0.6197420432169944  1.0000
  Br  Br2       1.0  0.7233465274918882  0.7282871849471921  0.3802579566788249  1.0000
  Br  Br3       1.0  0.9822274922544854  0.7851421576827906  0.25281560357243266  1.0000
  Br  Br4       1.0  0.017772508090063345  0.21485784252379436  0.7471843963233867  1.0000
  Br  Br5       1.0  0.8323911051900683  0.8508373043130246  0.1244891363402666  1.0000
  Br  Br6       1.0  0.1676088951544805  0.14916269589356054  0.8755108635555527  1.0000
  Br  Br7       1.0  0.5769902446014858  0.351496964877314  0.7498923479393772  1.0000
  Br  Br8       1.0  0.42300975574306304  0.648503035329271  0.250107651956442  1.0000
