data_image0
_chemical_formula_structural       H26C26N4O2F12I2
_chemical_formula_sum              "H26 C26 N4 O2 F12 I2"
_cell_length_a       5.031273559600713
_cell_length_b       5.091230798785671
_cell_length_c       29.022434629449975
_cell_angle_alpha    86.02036060915368
_cell_angle_beta     87.18309367239469
_cell_angle_gamma    88.25366130517793

_space_group_name_H-M_alt    "P 1"
_space_group_IT_number       1

loop_
  _space_group_symop_operation_xyz
  'x, y, z'

loop_
  _atom_site_type_symbol
  _atom_site_label
  _atom_site_symmetry_multiplicity
  _atom_site_fract_x
  _atom_site_fract_y
  _atom_site_fract_z
  _atom_site_occupancy
  H   H1        1.0  0.23263203653931191  0.268298316014591  0.28525842562532605  1.0000
  H   H2        1.0  0.7673679634804991  0.7317016833483406  0.7147415741841756  1.0000
  H   H3        1.0  0.7553588579927905  0.9535087744064843  0.3181788899845464  1.0000
  H   H4        1.0  0.24464114196233516  0.046491226921243446  0.681821109825653  1.0000
  H   H5        1.0  0.4866835669704443  0.879539234642727  0.24893338888386587  1.0000
  H   H6        1.0  0.5133164329607406  0.12046076458227957  0.7510666112714127  1.0000
  H   H7        1.0  0.6132605644679224  0.502747928894627  0.20161378363200233  1.0000
  H   H8        1.0  0.38673943555188844  0.49725207046830444  0.7983862161774994  1.0000
  H   H9        1.0  0.2640914245273481  0.26357315051331687  0.3599807245978512  1.0000
  H   H10       1.0  0.7359085754277777  0.7364268508144108  0.6400192752123481  1.0000
  H   H11       1.0  0.37071101438601106  0.5665043402387316  0.43389159163889  1.0000
  H   H12       1.0  0.6292889855451739  0.4334956589862748  0.5661084085163886  1.0000
  H   H13       1.0  0.6341216202193789  0.6287617541847272  0.39273577044051056  1.0000
  H   H14       1.0  0.3658783798004319  0.37123824517820414  0.6072642293689912  1.0000
  H   H15       1.0  0.7380965808990486  0.14306484127650526  0.3915131945077301  1.0000
  H   H16       1.0  0.2619034189674511  0.8569351599132973  0.6084868056482462  1.0000
  H   H17       1.0  0.46236501413003006  0.07690143999810371  0.42999271474160994  1.0000
  H   H18       1.0  0.5376349857364696  0.923098561191699  0.5700072854143663  1.0000
  H   H19       1.0  0.952106780162318  0.38709212716493796  0.450627778009281  1.0000
  H   H20       1.0  0.04789321976886685  0.6129078720600682  0.5493722221459976  1.0000
  H   H21       1.0  0.6734962268778839  0.33985792880276167  0.48907378804552565  1.0000
  H   H22       1.0  0.3265037730772419  0.660142072524966  0.5109262117646738  1.0000
  H   H23       1.0  0.03072212033243614  0.8972308162095222  0.45135711301479176  1.0000
  H   H24       1.0  0.9692778795987487  0.10276918301548409  0.5486428871404868  1.0000
  H   H25       1.0  0.7517395823939991  0.8500886587031848  0.48986903130068127  1.0000
  H   H26       1.0  0.24826041747250058  0.14991134248661753  0.510130968855295  1.0000
  C   C1        1.0  0.06585088837832852  0.40640855575573676  0.2788761975261178  1.0000
  C   C2        1.0  0.9341491116414823  0.5935914436071947  0.7211238022833839  1.0000
  C   C3        1.0  0.011072615421706363  0.6131387795048994  0.30766101169448967  1.0000
  C   C4        1.0  0.9889273845334192  0.38686122182282817  0.6923389881157098  1.0000
  C   C5        1.0  0.7996856890483706  0.7882673429614587  0.2968792201661698  1.0000
  C   C6        1.0  0.20031431081812925  0.21173265822834372  0.7031207799898065  1.0000
  C   C7        1.0  0.6516563884527788  0.7480819546347617  0.25897346315038716  1.0000
  C   C8        1.0  0.348343611567032  0.25191804472816987  0.7410265366591146  1.0000
  C   C9        1.0  0.7215908425716849  0.5368531352567698  0.23226323863719062  1.0000
  C   C10       1.0  0.2784091573594998  0.4631468639682366  0.7677367615180879  1.0000
  C   C11       1.0  0.1796133982742142  0.6619164159355191  0.34691889314337004  1.0000
  C   C12       1.0  0.8203866015922856  0.3380835852542835  0.6530811070126062  1.0000
  C   C13       1.0  0.48455657966109505  0.4825852150798658  0.4046274807744261  1.0000
  C   C14       1.0  0.5154434203587157  0.5174147842830658  0.5953725190350756  1.0000
  C   C15       1.0  0.617000004447044  0.2215998974013521  0.4203648251165119  1.0000
  C   C16       1.0  0.3829999954841407  0.7784001018236542  0.5796351750387667  1.0000
  C   C17       1.0  0.7920858823643566  0.24921665089061687  0.46103648823583243  1.0000
  C   C18       1.0  0.20791411756682826  0.7507833483343895  0.5389635119194461  1.0000
  C   C19       1.0  0.9130325321877358  0.987025198924343  0.4795422980667188  1.0000
  C   C20       1.0  0.08696746774344896  0.012974800300663497  0.5204577020885598  1.0000
  C   C21       1.0  0.296698696346958  0.8616004260864794  0.11003334400060567  1.0000
  C   C22       1.0  0.7033013035842269  0.13839957313852702  0.8899666561546729  1.0000
  C   C23       1.0  0.36020804608331364  0.04773806434620769  0.0660116565364701  1.0000
  C   C24       1.0  0.6397919538478711  0.9522619348787987  0.9339883436188083  1.0000
  C   C25       1.0  0.47133735231753016  0.9054623918426966  0.02223132653223789  1.0000
  C   C26       1.0  0.5286626495366507  0.09453760935131557  0.9777686736228449  1.0000
  N   N1        1.0  0.9254424752440822  0.36917136268989104  0.24200171990029024  1.0000
  N   N2        1.0  0.07455752477572863  0.6308286366730406  0.7579982799092115  1.0000
  N   N3        1.0  0.30674442300173416  0.45148762409441806  0.36742652723512687  1.0000
  N   N4        1.0  0.6932555768647655  0.5485123770953845  0.6325734729208494  1.0000
  O   O1        1.0  0.20292121741644462  0.8904188712883586  0.35965850728627885  1.0000
  O   O2        1.0  0.7970787844377363  0.10958112990565355  0.640341492868804  1.0000
  F   F1        1.0  0.11604896377378339  0.6825259252938063  0.10027946000947392  1.0000
  F   F2        1.0  0.8839510361574016  0.31747407393120003  0.8997205401458046  1.0000
  F   F3        1.0  0.5236997304516785  0.7273434443310411  0.12294962014041673  1.0000
  F   F4        1.0  0.4763002694795064  0.27265655489396506  0.8770503800148619  1.0000
  F   F5        1.0  0.1308715386501724  0.1825204080209213  0.05520671811567688  1.0000
  F   F6        1.0  0.8691284613696386  0.8174795913420103  0.9447932816938248  1.0000
  F   F7        1.0  0.5435697881082745  0.2222343280064064  0.07721300818117528  1.0000
  F   F8        1.0  0.4564302117582252  0.7777656731833961  0.9227869919748011  1.0000
  F   F9        1.0  0.2903793137174645  0.7269190536820263  0.011947678566162847  1.0000
  F   F10       1.0  0.7096206882014017  0.27308094554718965  0.9880523215882223  1.0000
  F   F11       1.0  0.7020420070444756  0.7744248123739557  0.03339405089849374  1.0000
  F   F12       1.0  0.29795799288670927  0.22557518685105077  0.9666059492567848  1.0000
  I   I1        1.0  0.13446971262521257  0.08120653778975924  0.16798583524870303  1.0000
  I   I2        1.0  0.8655302873059724  0.9187934614352471  0.8320141649065754  1.0000
