data_image0
_chemical_formula_structural       H72C72N16O8F16I8
_chemical_formula_sum              "H72 C72 N16 O8 F16 I8"
_cell_length_a       39.92267915429307
_cell_length_b       5.679199400677967
_cell_length_c       9.746657671322527
_cell_angle_alpha    90.0
_cell_angle_beta     103.16426000709684
_cell_angle_gamma    90.0

_space_group_name_H-M_alt    "P 1"
_space_group_IT_number       1

loop_
  _space_group_symop_operation_xyz
  'x, y, z'

loop_
  _atom_site_type_symbol
  _atom_site_label
  _atom_site_symmetry_multiplicity
  _atom_site_fract_x
  _atom_site_fract_y
  _atom_site_fract_z
  _atom_site_occupancy
  H   H1        1.0  0.942853262500518  0.584473996388249  0.3923411513072702  1.0000
  H   H2        1.0  0.057146737383412895  0.584473996388249  0.10765884808613525  1.0000
  H   H3        1.0  0.442853262554948  0.08447399644793761  0.3923411519489857  1.0000
  H   H4        1.0  0.5571467373871333  0.08447399644793761  0.10765884849810044  1.0000
  H   H5        1.0  0.05714673737620376  0.4155260034923738  0.6076588487629718  1.0000
  H   H6        1.0  0.9428532624933089  0.4155260034923738  0.8923411519841068  1.0000
  H   H7        1.0  0.5571467373217738  0.9155260034326852  0.6076588481212564  1.0000
  H   H8        1.0  0.4428532624895885  0.9155260034326852  0.8923411515721417  1.0000
  H   H9        1.0  0.8894604913691107  0.5384366394381148  0.31613114856427954  1.0000
  H   H10       1.0  0.11053950851482047  0.5384366394381148  0.18386885082912596  1.0000
  H   H11       1.0  0.3894604914235405  0.038436639497803377  0.31613114920599505  1.0000
  H   H12       1.0  0.610539508518541  0.038436639497803377  0.18386885124109115  1.0000
  H   H13       1.0  0.11053950850761132  0.461563360442508  0.6838688515059624  1.0000
  H   H14       1.0  0.8894604913619014  0.461563360442508  0.8161311492411161  1.0000
  H   H15       1.0  0.6105395084531815  0.9615633603828194  0.6838688508642471  1.0000
  H   H16       1.0  0.38946049135818095  0.9615633603828194  0.8161311488291509  1.0000
  H   H17       1.0  0.8277414802964616  0.9474613867859003  0.2865142646824234  1.0000
  H   H18       1.0  0.17225851958746954  0.9474613867859003  0.2134857347109821  1.0000
  H   H19       1.0  0.3277414803508914  0.4474613868455888  0.286514265324139  1.0000
  H   H20       1.0  0.67225851959119  0.4474613868455888  0.21348573512294725  1.0000
  H   H21       1.0  0.17225851958026042  0.05253861309472257  0.7134857353878187  1.0000
  H   H22       1.0  0.827741480231102  0.05253861309472257  0.7865142643055794  1.0000
  H   H23       1.0  0.6722585195258305  0.5525386130350339  0.7134857347461031  1.0000
  H   H24       1.0  0.3277414802855318  0.5525386130350339  0.7865142649472947  1.0000
  H   H25       1.0  0.8594912002148811  0.8005662839479175  0.5215275887812849  1.0000
  H   H26       1.0  0.14050879959648135  0.8005662839479175  0.978472410912113  1.0000
  H   H27       1.0  0.3594912002693109  0.3005662840076061  0.5215275894230005  1.0000
  H   H28       1.0  0.6405087996002018  0.3005662840076061  0.9784724113240781  1.0000
  H   H29       1.0  0.14050879966184085  0.1994337159327053  0.47847241128895707  1.0000
  H   H30       1.0  0.8594912002802405  0.1994337159327053  0.02152758915812909  1.0000
  H   H31       1.0  0.640508799607411  0.6994337158730167  0.4784724106472416  1.0000
  H   H32       1.0  0.35949120027652004  0.6994337158730167  0.021527588746163912  1.0000
  H   H33       1.0  0.9093602015989398  0.03798969974081985  0.6585643197396532  1.0000
  H   H34       1.0  0.09063979821242257  0.03798969974081985  0.8414356799537447  1.0000
  H   H35       1.0  0.40936020165336967  0.5379896996811312  0.6585643203813687  1.0000
  H   H36       1.0  0.590639798216143  0.5379896996811312  0.8414356803657099  1.0000
  H   H37       1.0  0.0906397982777821  0.962010300139803  0.3414356803305889  1.0000
  H   H38       1.0  0.9093602016642993  0.962010300139803  0.15856432011649732  1.0000
  H   H39       1.0  0.5906397982233521  0.4620103001994915  0.3414356796888734  1.0000
  H   H40       1.0  0.40936020166057885  0.4620103001994915  0.15856431970453214  1.0000
  H   H41       1.0  0.9990559488821696  0.6413027969338808  0.6215206584056069  1.0000
  H   H42       1.0  0.0009440512379286266  0.6413027969338808  0.8784793423433027  1.0000
  H   H43       1.0  0.49905594887844923  0.14130279699356943  0.6215206579936418  1.0000
  H   H44       1.0  0.5009440511834987  0.14130279699356943  0.8784793417015871  1.0000
  H   H45       1.0  0.0009440509945521541  0.35869720294674196  0.3784793416646351  1.0000
  H   H46       1.0  0.9990559488893789  0.35869720294674196  0.12152065772877038  1.0000
  H   H47       1.0  0.5009440512488582  0.8586972028870534  0.37847934207843126  1.0000
  H   H48       1.0  0.4990559489438087  0.8586972028870534  0.12152065837048592  1.0000
  H   H49       1.0  0.9681524724654393  0.8422373036292741  0.6539619791294923  1.0000
  H   H50       1.0  0.03184752759650861  0.8422373036292741  0.8460380205657366  1.0000
  H   H51       1.0  0.46815247246171887  0.34223730368896266  0.653961978717527  1.0000
  H   H52       1.0  0.531847527600229  0.34223730368896266  0.8460380209777018  1.0000
  H   H53       1.0  0.03184752766186812  0.15776269625134876  0.34603802094258074  1.0000
  H   H54       1.0  0.968152472530799  0.15776269625134876  0.15396197950633642  1.0000
  H   H55       1.0  0.5318475276074383  0.6577626961916602  0.3460380203008652  1.0000
  H   H56       1.0  0.46815247227649287  0.6577626961916602  0.1539619790925403  1.0000
  H   H57       1.0  0.9628405003828938  0.018169300410139116  0.4124644924377155  1.0000
  H   H58       1.0  0.03715949980977303  0.018169300410139116  0.08753550801120168  1.0000
  H   H59       1.0  0.4628405001285879  0.5181693003504505  0.4124644920239193  1.0000
  H   H60       1.0  0.537159499755343  0.5181693003504505  0.08753550736948615  1.0000
  H   H61       1.0  0.03715949974441351  0.9818306994704837  0.5875355076343575  1.0000
  H   H62       1.0  0.9628405003175344  0.9818306994704837  0.9124644920608711  1.0000
  H   H63       1.0  0.5371594997481339  0.48183069953017227  0.5875355080463227  1.0000
  H   H64       1.0  0.46284050037196434  0.48183069953017227  0.9124644927025868  1.0000
  H   H65       1.0  0.9939571616728698  0.8179484311548311  0.3799444733972818  1.0000
  H   H66       1.0  0.006042838269211587  0.8179484311548311  0.12005552704980439  1.0000
  H   H67       1.0  0.4939571616691493  0.31794843121451966  0.37994447298531664  1.0000
  H   H68       1.0  0.5060428382147817  0.31794843121451966  0.12005552640808888  1.0000
  H   H69       1.0  0.006042838203852066  0.18205156872579173  0.6200555266729603  1.0000
  H   H70       1.0  0.9939571616075102  0.18205156872579173  0.8799444730204377  1.0000
  H   H71       1.0  0.5060428382075725  0.6820515686661031  0.6200555270849254  1.0000
  H   H72       1.0  0.49395716166194015  0.6820515686661031  0.8799444736621533  1.0000
  C   C1        1.0  0.7639046471026844  0.7071878598804877  0.9620063699378085  1.0000
  C   C2        1.0  0.2360953529592636  0.7071878598804877  0.5379936297574203  1.0000
  C   C3        1.0  0.26390464709896394  0.20718785994017636  0.9620063695258434  1.0000
  C   C4        1.0  0.736095352962984  0.20718785994017636  0.5379936301693855  1.0000
  C   C5        1.0  0.2360953530246231  0.29281214000013506  0.03799363013426444  1.0000
  C   C6        1.0  0.7639046469174583  0.29281214000013506  0.46200637031282177  1.0000
  C   C7        1.0  0.7360953529701932  0.7928121399404464  0.03799362949254891  1.0000
  C   C8        1.0  0.26390464691373783  0.7928121399404464  0.46200636990085664  1.0000
  C   C9        1.0  0.8841579733871474  0.3734043516321762  0.36454880901168835  1.0000
  C   C10       1.0  0.11584202674736925  0.3734043516321762  0.1354511903835481  1.0000
  C   C11       1.0  0.38415797319099165  0.8734043515724876  0.3645488096515729  1.0000
  C   C12       1.0  0.6158420267510897  0.8734043515724876  0.1354511907955133  1.0000
  C   C13       1.0  0.11584202674016013  0.6265956482484466  0.6354511910603846  1.0000
  C   C14       1.0  0.8841579733799382  0.6265956482484466  0.8645488096885249  1.0000
  C   C15       1.0  0.6158420266857302  0.1265956483081352  0.635451190418669  1.0000
  C   C16       1.0  0.38415797337621777  0.1265956483081352  0.8645488092765597  1.0000
  C   C17       1.0  0.8495584424600673  0.04544356550840437  0.3480805081907772  1.0000
  C   C18       1.0  0.1504415574820141  0.04544356550840437  0.151919492256309  1.0000
  C   C19       1.0  0.3495584424563469  0.5454435654487158  0.34808050777881205  1.0000
  C   C20       1.0  0.6504415576781698  0.5454435654487158  0.15191949161642443  1.0000
  C   C21       1.0  0.1504415576672402  0.9545564343722185  0.6519194918812958  1.0000
  C   C22       1.0  0.8495584423947077  0.9545564343722185  0.8480805078139331  1.0000
  C   C23       1.0  0.6504415576128103  0.454556434431907  0.6519194912395803  1.0000
  C   C24       1.0  0.3495584424491377  0.454556434431907  0.8480805084556488  1.0000
  C   C25       1.0  0.8675330528441538  0.9627764767948225  0.47907603835971274  1.0000
  C   C26       1.0  0.13246694709792756  0.9627764767948225  0.020923962087373457  1.0000
  C   C27       1.0  0.3675330528404334  0.462776476854511  0.4790760379477476  1.0000
  C   C28       1.0  0.6324669470434976  0.462776476854511  0.02092396144565793  1.0000
  C   C29       1.0  0.132466947032568  0.03722352308580038  0.5209239617105293  1.0000
  C   C30       1.0  0.8675330530293799  0.03722352308580038  0.9790760379846996  1.0000
  C   C31       1.0  0.6324669470362885  0.5372235230261118  0.5209239621224946  1.0000
  C   C32       1.0  0.36753305283322424  0.5372235230261118  0.9790760386245843  1.0000
  C   C33       1.0  0.8949356105667522  0.09418615235382384  0.5548213196269034  1.0000
  C   C34       1.0  0.1050643892446101  0.09418615235382384  0.9451786800664946  1.0000
  C   C35       1.0  0.39493561062118215  0.5941861522941353  0.5548213202686187  1.0000
  C   C36       1.0  0.6050643891901802  0.5941861522941353  0.9451786794247791  1.0000
  C   C37       1.0  0.10506438925181925  0.9058138475267989  0.445178679389658  1.0000
  C   C38       1.0  0.8949356106321117  0.9058138475267989  0.054821320003747495  1.0000
  C   C39       1.0  0.6050643892555397  0.40581384758648753  0.4451786798016231  1.0000
  C   C40       1.0  0.39493561062839133  0.40581384758648753  0.054821319591782325  1.0000
  C   C41       1.0  0.9040061938613974  0.30288699843760597  0.4959496105741894  1.0000
  C   C42       1.0  0.09599380608068392  0.30288699843760597  0.004050389872896888  1.0000
  C   C43       1.0  0.40400619385767705  0.8028869983779173  0.49594961016222416  1.0000
  C   C44       1.0  0.5959938060844044  0.8028869983779173  0.0040503902848620646  1.0000
  C   C45       1.0  0.09599380626591002  0.6971130014430168  0.5040503894978836  1.0000
  C   C46       1.0  0.904006193796038  0.6971130014430168  0.9959496101973453  1.0000
  C   C47       1.0  0.5959938062696305  0.19711300150270547  0.5040503899098489  1.0000
  C   C48       1.0  0.40400619379231745  0.19711300150270547  0.9959496097853802  1.0000
  C   C49       1.0  0.9332482493443158  0.4467432697814982  0.575923034592604  1.0000
  C   C50       1.0  0.06675175046704646  0.4467432697814982  0.9240769651007937  1.0000
  C   C51       1.0  0.43324824934059547  0.9467432697218096  0.5759230341806388  1.0000
  C   C52       1.0  0.5667517504707669  0.9467432697218096  0.9240769655127589  1.0000
  C   C53       1.0  0.06675175053240598  0.5532567300991246  0.42407696547763796  1.0000
  C   C54       1.0  0.933248249351525  0.5532567300991246  0.07592303391576752  1.0000
  C   C55       1.0  0.5667517505361264  0.05325673015881317  0.4240769658896032  1.0000
  C   C56       1.0  0.43324824940595497  0.05325673015881317  0.07592303455748305  1.0000
  C   C57       1.0  0.9764326135644674  0.7458521001207208  0.5693028059970039  1.0000
  C   C58       1.0  0.0235673864974805  0.7458521001207208  0.9306971936982251  1.0000
  C   C59       1.0  0.4764326136188974  0.2458521001804093  0.5693028066387193  1.0000
  C   C60       1.0  0.5235673865012009  0.2458521001804093  0.9306971941101903  1.0000
  C   C61       1.0  0.02356738656284001  0.2541478997599021  0.4306971940750691  1.0000
  C   C62       1.0  0.976432613629827  0.2541478997599021  0.06930280637384804  1.0000
  C   C63       1.0  0.5235673865084102  0.7541478997002136  0.43069719343335366  1.0000
  C   C64       1.0  0.47643261337552095  0.7541478997002136  0.06930280596005194  1.0000
  C   C65       1.0  0.9857964258199893  0.9165751354633882  0.4640270693753863  1.0000
  C   C66       1.0  0.01420357406394167  0.9165751354633882  0.03597293001801915  1.0000
  C   C67       1.0  0.48579642587441924  0.4165751355230767  0.46402707001710186  1.0000
  C   C68       1.0  0.5142035743182477  0.4165751355230767  0.03597293043181527  1.0000
  C   C69       1.0  0.014203574307318138  0.0834248644172347  0.5359729306966866  1.0000
  C   C70       1.0  0.9857964258127802  0.0834248644172347  0.9640270700522229  1.0000
  C   C71       1.0  0.5142035742528882  0.5834248643575461  0.535972930054971  1.0000
  C   C72       1.0  0.48579642580905974  0.5834248643575461  0.9640270696402577  1.0000
  N   N1        1.0  0.8575106388695755  0.2483955026885649  0.29221452530190956  1.0000
  N   N2        1.0  0.14248936132309167  0.2483955026885649  0.2077854751470076  1.0000
  N   N3        1.0  0.3575106388658549  0.7483955043896878  0.2922145248899443  1.0000
  N   N4        1.0  0.6424893612686617  0.7483955043896878  0.20778547450529208  1.0000
  N   N5        1.0  0.14248936125773215  0.7516044971920579  0.7077854747701634  1.0000
  N   N6        1.0  0.8575106388042156  0.7516044971920579  0.7922145249250654  1.0000
  N   N7        1.0  0.6424893612614526  0.2516044972517465  0.7077854751821285  1.0000
  N   N8        1.0  0.35751063880049533  0.2516044972517465  0.7922145245131003  1.0000
  N   N9        1.0  0.9487188396570231  0.5911449683557903  0.500581639353377  1.0000
  N   N10       1.0  0.05128116040492499  0.5911449683557903  0.9994183603418518  1.0000
  N   N11       1.0  0.4487188396533025  0.0911449684154789  0.5005816389414118  1.0000
  N   N12       1.0  0.5512811604086454  0.0911449684154789  0.999418360753817  1.0000
  N   N13       1.0  0.05128116021969889  0.4088550315248325  0.4994183607168651  1.0000
  N   N14       1.0  0.9487188397223825  0.4088550315248325  0.0005816397302211548  1.0000
  N   N15       1.0  0.551281160165269  0.908855031465144  0.4994183600751495  1.0000
  N   N16       1.0  0.4487188397186621  0.908855031465144  0.0005816393182559772  1.0000
  O   O1        1.0  0.9428191583718538  0.432622621017092  0.7075617635503706  1.0000
  O   O2        1.0  0.057180841690094145  0.432622621017092  0.7924382361448582  1.0000
  O   O3        1.0  0.44281915817569806  0.9326226209574033  0.7075617641902552  1.0000
  O   O4        1.0  0.5571808416938145  0.9326226209574033  0.7924382365568235  1.0000
  O   O5        1.0  0.05718084175545368  0.5673773788635308  0.2924382365217025  1.0000
  O   O6        1.0  0.9428191581866276  0.5673773788635308  0.20756176392538375  1.0000
  O   O7        1.0  0.5571808417010238  0.06737737892321942  0.2924382358799869  1.0000
  O   O8        1.0  0.44281915818290724  0.06737737892321942  0.20756176351341857  1.0000
  F   F1        1.0  0.7486680949980977  0.5726915345870289  0.8491451164533995  1.0000
  F   F2        1.0  0.2513319050638502  0.5726915345870289  0.6508548832418294  1.0000
  F   F3        1.0  0.24866809505252768  0.07269153288590599  0.8491451170951151  1.0000
  F   F4        1.0  0.7513319050675706  0.07269153288590599  0.6508548836537945  1.0000
  F   F5        1.0  0.2513319048786241  0.4273084670544054  0.15085488361684254  1.0000
  F   F6        1.0  0.7486680950634573  0.4273084670544054  0.34914511683024363  1.0000
  F   F7        1.0  0.7513319050747798  0.9273084669947169  0.15085488297695795  1.0000
  F   F8        1.0  0.2486680950597368  0.9273084669947169  0.34914511641827845  1.0000
  F   F9        1.0  0.7783811697110368  0.8991736615887073  0.9134257635046492  1.0000
  F   F10       1.0  0.22161883010032551  0.8991736615887073  0.5865742361887486  1.0000
  F   F11       1.0  0.2783811697654668  0.399173661648396  0.9134257641463649  1.0000
  F   F12       1.0  0.7216188302964812  0.399173661648396  0.586574235548864  1.0000
  F   F13       1.0  0.22161883010753464  0.10082633829191542  0.08657423551191203  1.0000
  F   F14       1.0  0.7783811697763964  0.10082633829191542  0.4134257638814935  1.0000
  F   F15       1.0  0.7216188301112552  0.6008263382322268  0.08657423592387721  1.0000
  F   F16       1.0  0.2783811698308263  0.6008263382322268  0.413425764523209  1.0000
  I   I1        1.0  0.8046788570792406  0.5018686559341005  0.10003421480474392  1.0000
  I   I2        1.0  0.19532114280469035  0.5018686559341005  0.3999657845886616  1.0000
  I   I3        1.0  0.3046788571336706  0.001868655993789039  0.10003421544645945  1.0000
  I   I4        1.0  0.6953211428084107  0.001868655993789039  0.3999657850006268  1.0000
  I   I5        1.0  0.19532114279748122  0.49813134394652236  0.899965785265498  1.0000
  I   I6        1.0  0.8046788570720315  0.49813134394652236  0.6000342154815804  1.0000
  I   I7        1.0  0.6953211429936369  0.9981313438868338  0.8999657846256136  1.0000
  I   I8        1.0  0.3046788570683111  0.9981313438868338  0.6000342150696153  1.0000
