data_image0
_chemical_formula_structural       H18C20N4O2F8I2
_chemical_formula_sum              "H18 C20 N4 O2 F8 I2"
_cell_length_a       4.941137515603824
_cell_length_b       10.604685953874295
_cell_length_c       12.155018834289228
_cell_angle_alpha    71.02670505333926
_cell_angle_beta     89.23821708445067
_cell_angle_gamma    86.54423461199946

_space_group_name_H-M_alt    "P 1"
_space_group_IT_number       1

loop_
  _space_group_symop_operation_xyz
  'x, y, z'

loop_
  _atom_site_type_symbol
  _atom_site_label
  _atom_site_symmetry_multiplicity
  _atom_site_fract_x
  _atom_site_fract_y
  _atom_site_fract_z
  _atom_site_occupancy
  H   H1        1.0  0.8351107717607493  0.2836177366393434  0.5726167333845676  1.0000
  H   H2        1.0  0.1648892291369787  0.7163822634812883  0.4273832665004405  1.0000
  H   H3        1.0  0.44491486234295685  0.5377983905132198  0.6248962975892317  1.0000
  H   H4        1.0  0.555085138554771  0.4622016096074119  0.37510370229577633  1.0000
  H   H5        1.0  0.9750466232041374  0.5747844971781154  0.8991105321745769  1.0000
  H   H6        1.0  0.02495337578465014  0.42521550200213254  0.10088946770750497  1.0000
  H   H7        1.0  0.7072370998038949  0.38082219023832053  0.9024694787756323  1.0000
  H   H8        1.0  0.292762901093833  0.6191778098823112  0.0975305211093758  1.0000
  H   H9        1.0  0.8184569152017438  0.2621429415664738  0.7583126822104965  1.0000
  H   H10       1.0  0.18154308569598404  0.737857058554158  0.24168731767451157  1.0000
  H   H11       1.0  0.31374020617911885  0.166495761931118  0.47940421253402976  1.0000
  H   H12       1.0  0.686259794718609  0.8335042381895137  0.5205957873509783  1.0000
  H   H13       1.0  0.017867229018536743  0.23075115183125633  0.39424386046402143  1.0000
  H   H14       1.0  0.9821327718791911  0.7692488482893755  0.6057561394209867  1.0000
  H   H15       1.0  0.742668883578213  0.06322372477250394  0.5382644501248077  1.0000
  H   H16       1.0  0.2573311173195149  0.9367762753481277  0.4617355497602004  1.0000
  H   H17       1.0  0.03404371867310757  0.9991631686396756  0.6257981911287318  1.0000
  H   H18       1.0  0.9659562802003496  0.0008368314856614117  0.3742018087522833  1.0000
  C   C1        1.0  0.5139050836424816  0.9577791658438961  0.8479990820951442  1.0000
  C   C2        1.0  0.4860949172552463  0.042220834276735585  0.15200091778986385  1.0000
  C   C3        1.0  0.4749731023633468  0.9382612271899339  0.9799360446395357  1.0000
  C   C4        1.0  0.525026898534381  0.06173877293069784  0.02006395524547248  1.0000
  C   C5        1.0  0.2819503456912742  0.49983402893345263  0.6860213812428662  1.0000
  C   C6        1.0  0.7180496531821832  0.5001659711918843  0.313978618638149  1.0000
  C   C7        1.0  0.018570877229308978  0.5196241074550193  0.8385835086324651  1.0000
  C   C8        1.0  0.9814291216441483  0.48037589267031766  0.16141649124854995  1.0000
  C   C9        1.0  0.8685704586582762  0.4124977205018578  0.8395246557685828  1.0000
  C   C10       1.0  0.13142954021518094  0.5875022796234791  0.1604753441124323  1.0000
  C   C11       1.0  0.9302864340617365  0.34730891200836417  0.7588745747313405  1.0000
  C   C12       1.0  0.0697135668359913  0.6526910881122675  0.2411254251536678  1.0000
  C   C13       1.0  0.14077919793516616  0.39141063013578653  0.6801577421900573  1.0000
  C   C14       1.0  0.859220803077892  0.6085893690397564  0.31984225769601765  1.0000
  C   C15       1.0  0.22941057432939102  0.32262828819023975  0.5949577058400717  1.0000
  C   C16       1.0  0.7705894265683368  0.6773717119303919  0.4050422940449364  1.0000
  C   C17       1.0  0.09239926442484443  0.18045220301623796  0.4837659299834439  1.0000
  C   C18       1.0  0.9076007364769891  0.8195477967809809  0.5162340707715445  1.0000
  C   C19       1.0  0.9647204668054753  0.04637699162389681  0.5352698325712426  1.0000
  C   C20       1.0  0.035279532067981886  0.9536230085014401  0.46473016730977257  1.0000
  N   N1        1.0  0.22138720583508964  0.5625066087276163  0.7634781072913585  1.0000
  N   N2        1.0  0.7786127931536978  0.4374933904526316  0.23652189259072343  1.0000
  N   N3        1.0  0.03477290220839149  0.2660519037315038  0.5543852246398508  1.0000
  N   N4        1.0  0.9652270966650658  0.7339480963938332  0.4456147752411642  1.0000
  O   O1        1.0  0.4736076796446724  0.3182594542131717  0.5664432169276066  1.0000
  O   O2        1.0  0.5263923192287849  0.6817405459121653  0.43355678295340844  1.0000
  F   F1        1.0  0.7746363305370132  0.9902101694231743  0.8174899143010687  1.0000
  F   F2        1.0  0.225363670476045  0.009789829752368343  0.18251008558500625  1.0000
  F   F3        1.0  0.3461233131535648  0.06314250904091723  0.7843168011500509  1.0000
  F   F4        1.0  0.6538766857198925  0.9368574910844197  0.21568319873096423  1.0000
  F   F5        1.0  0.6486706648177749  0.8338403889422821  0.04087764792372649  1.0000
  F   F6        1.0  0.35132933405568234  0.16615961118305483  0.9591223519572887  1.0000
  F   F7        1.0  0.21494442793527646  0.9033070660942435  0.008093462602578289  1.0000
  F   F8        1.0  0.7850555729624514  0.09669293402638823  0.9919065372824298  1.0000
  I   I1        1.0  0.4184856922949519  0.7781911670889418  0.8060117724628078  1.0000
  I   I2        1.0  0.581514308718106  0.22180883208660102  0.19398822742326713  1.0000
