data_image0
_chemical_formula_structural       H22C20N4O2F4I2
_chemical_formula_sum              "H22 C20 N4 O2 F4 I2"
_cell_length_a       5.049923633030531
_cell_length_b       5.06196255243461
_cell_length_c       22.06165914438934
_cell_angle_alpha    94.61288999388074
_cell_angle_beta     92.90249412686352
_cell_angle_gamma    91.1453036193196

_space_group_name_H-M_alt    "P 1"
_space_group_IT_number       1

loop_
  _space_group_symop_operation_xyz
  'x, y, z'

loop_
  _atom_site_type_symbol
  _atom_site_label
  _atom_site_symmetry_multiplicity
  _atom_site_fract_x
  _atom_site_fract_y
  _atom_site_fract_z
  _atom_site_occupancy
  H   H1        1.0  0.3724260046587448  0.5261515099724987  0.2421622617358992  1.0000
  H   H2        1.0  0.6275739952548641  0.4738484906182429  0.7578377382577066  1.0000
  H   H3        1.0  0.8966861908552636  0.8129873620723224  0.19807939719498596  1.0000
  H   H4        1.0  0.10331380905834538  0.1870126385184192  0.8019206027986199  1.0000
  H   H5        1.0  0.6290493532190617  0.9500488070612996  0.2889099398107937  1.0000
  H   H6        1.0  0.37095064669454714  0.049951193529442134  0.7110900601828122  1.0000
  H   H7        1.0  0.7549900464001558  0.3690457166068936  0.35135197976096366  1.0000
  H   H8        1.0  0.24500995351345306  0.630954283983848  0.6486480202326422  1.0000
  H   H9        1.0  0.406972717188797  0.46460216728888637  0.14397760553428335  1.0000
  H   H10       1.0  0.5930272827248119  0.5353978333018553  0.8560223944593226  1.0000
  H   H11       1.0  0.5092173492906682  0.0956646834803185  0.04686412258008933  1.0000
  H   H12       1.0  0.49078265062294063  0.904335317110423  0.9531358774135166  1.0000
  H   H13       1.0  0.7719135982682644  0.061102824134135855  0.10093967703245507  1.0000
  H   H14       1.0  0.2280864016453445  0.9388971764566058  0.8990603229611508  1.0000
  H   H15       1.0  0.8826369233184198  0.5485508139962333  0.10291936642041147  1.0000
  H   H16       1.0  0.11736307659518905  0.4514491865945084  0.8970806335731943  1.0000
  H   H17       1.0  0.6094108350398534  0.588807698364601  0.05181370624773216  1.0000
  H   H18       1.0  0.39058916487375556  0.41119230222614056  0.9481862937458738  1.0000
  H   H19       1.0  0.08818512529478384  0.24077746370215333  0.02556128851957679  1.0000
  H   H20       1.0  0.911814874618825  0.7592225368885883  0.9744387114740292  1.0000
  H   H21       1.0  0.8152216713972874  0.2706753009052094  0.9737014606404771  1.0000
  H   H22       1.0  0.1847783284700861  0.729324697709508  0.026298539352783756  1.0000
  C   C1        1.0  0.20644306397090587  0.39391324519636467  0.25024647299447283  1.0000
  C   C2        1.0  0.7935569359427032  0.6060867553943767  0.7497535269991329  1.0000
  C   C3        1.0  0.1519736723187315  0.16170069860113928  0.21234316579253018  1.0000
  C   C4        1.0  0.8480263275486423  0.8382993000135782  0.7876568342007307  1.0000
  C   C5        1.0  0.9409880000783125  0.9970307228809917  0.22618348623210222  1.0000
  C   C6        1.0  0.05901199983529642  0.0029692777097498585  0.7738165137615036  1.0000
  C   C7        1.0  0.7934917163297052  0.07182777478437861  0.27589100838181807  1.0000
  C   C8        1.0  0.20650828358390377  0.928172225806363  0.7241089916117879  1.0000
  C   C9        1.0  0.8629386718230451  0.3066093064051513  0.31115361467132424  1.0000
  C   C10       1.0  0.13706132809056382  0.6933906941855904  0.6888463853222817  1.0000
  C   C11       1.0  0.32055291405840314  0.07692428931949383  0.1610135418851279  1.0000
  C   C12       1.0  0.6794470858552057  0.9230757112712478  0.8389864581084779  1.0000
  C   C13       1.0  0.6249449747272593  0.20216679634323537  0.0854373893952868  1.0000
  C   C14       1.0  0.37505502518634976  0.7978332042475061  0.9145626105983191  1.0000
  C   C15       1.0  0.7607363091226207  0.44730793430849247  0.064780629339962  1.0000
  C   C16       1.0  0.23926369079098836  0.5526920662822492  0.9352193706536439  1.0000
  C   C17       1.0  0.9343189159132009  0.3781911613139238  0.011519993553342236  1.0000
  C   C18       1.0  0.06568108400040806  0.6218088392768178  0.9884800064402638  1.0000
  C   C19       1.0  0.44995350952700314  0.07568746507955926  0.4728081032495919  1.0000
  C   C20       1.0  0.5500464903866058  0.9243125355111824  0.527191896744014  1.0000
  N   N1        1.0  0.06621382513763062  0.46432579275724234  0.2985476707519918  1.0000
  N   N2        1.0  0.9337861747759783  0.5356742078334992  0.701452329241614  1.0000
  N   N3        1.0  0.44949991334795264  0.2687629116775423  0.13442359007909105  1.0000
  N   N4        1.0  0.5505000865656562  0.7312370889131993  0.8655764099145148  1.0000
  O   O1        1.0  0.34187259451047547  0.8359447071295456  0.14409658689535593  1.0000
  O   O2        1.0  0.6581274054031335  0.16405529346119613  0.85590341309825  1.0000
  F   F1        1.0  0.6578065016267609  0.21911947655418146  0.453404708922631  1.0000
  F   F2        1.0  0.34219349828684803  0.7808805240365602  0.5465952910709749  1.0000
  F   F3        1.0  0.261292730277634  0.24824893129844255  0.49178664612702744  1.0000
  F   F4        1.0  0.7387072695897396  0.7517510673162748  0.5082133538662335  1.0000
  I   I1        1.0  0.2808895925487211  0.8115214403634158  0.39595798631366214  1.0000
  I   I2        1.0  0.7191104073186525  0.18847855825130172  0.6040420136795988  1.0000
