data_image0
_chemical_formula_structural       H22C26N4O2F16I2
_chemical_formula_sum              "H22 C26 N4 O2 F16 I2"
_cell_length_a       5.034703248311645
_cell_length_b       5.08102441922338
_cell_length_c       29.856893565008335
_cell_angle_alpha    86.12480274933534
_cell_angle_beta     88.11349682774116
_cell_angle_gamma    88.11070400776384

_space_group_name_H-M_alt    "P 1"
_space_group_IT_number       1

loop_
  _space_group_symop_operation_xyz
  'x, y, z'

loop_
  _atom_site_type_symbol
  _atom_site_label
  _atom_site_symmetry_multiplicity
  _atom_site_fract_x
  _atom_site_fract_y
  _atom_site_fract_z
  _atom_site_occupancy
  H   H1        1.0  0.2957222946368731  0.504617522422146  0.17977420964553645  1.0000
  H   H2        1.0  0.7042777060667084  0.4953824771684241  0.820225790496412  1.0000
  H   H3        1.0  0.8287575403146725  0.21518821602165958  0.14778347712449333  1.0000
  H   H4        1.0  0.1712424583958198  0.7848117856590223  0.8522165226802697  1.0000
  H   H5        1.0  0.5318014141136826  0.08777451453501234  0.2152508218154529  1.0000
  H   H6        1.0  0.46819858658989877  0.9122254850555577  0.7847491783264956  1.0000
  H   H7        1.0  0.6407619130118567  0.6737346821553104  0.2612251356069841  1.0000
  H   H8        1.0  0.35923808769172466  0.3262653174352596  0.7387748645349644  1.0000
  H   H9        1.0  0.35719739530335404  0.5569195508093328  0.10680691807496992  1.0000
  H   H10       1.0  0.6428026034783613  0.4430804489018443  0.893193081730669  1.0000
  H   H11       1.0  0.7388751593105276  0.94991681346526  0.07490038739519098  1.0000
  H   H12       1.0  0.26112484145711523  0.050083186251561336  0.9250996124109012  1.0000
  H   H13       1.0  0.4963379762752001  0.9164210191453082  0.0348577559613644  1.0000
  H   H14       1.0  0.5036620224424538  0.0835789804396176  0.9651422441801308  1.0000
  H   H15       1.0  0.592377709881925  0.4221319496449655  0.039104260870504136  1.0000
  H   H16       1.0  0.4076222888357288  0.5778680499399602  0.960895739270991  1.0000
  H   H17       1.0  0.8500904877522083  0.46434797215635465  0.07622583558643743  1.0000
  H   H18       1.0  0.14990951294421181  0.5356520295299715  0.9237741642187787  1.0000
  H   H19       1.0  0.823822858443854  0.7289606504821367  0.9806417961171907  1.0000
  H   H20       1.0  0.17617714225256614  0.2710393512041897  0.019358203688025537  1.0000
  H   H21       1.0  0.0821534043881589  0.7594588837871586  0.018248149664045785  1.0000
  H   H22       1.0  0.9178465943935562  0.24054111592401842  0.9817518501415932  1.0000
  C   C1        1.0  0.12588051025903932  0.6381036208820418  0.18593945082822289  1.0000
  C   C2        1.0  0.8741194885226758  0.36189637882913517  0.8140605489774161  1.0000
  C   C3        1.0  0.08220761444795611  0.866898374696832  0.15791178920558158  1.0000
  C   C4        1.0  0.9177923842625362  0.13310162698384986  0.8420882105991815  1.0000
  C   C5        1.0  0.8652216404622336  0.03352015430391993  0.16846349534001864  1.0000
  C   C6        1.0  0.13477835824825862  0.9664798473767621  0.8315365044647444  1.0000
  C   C7        1.0  0.7015399583707707  0.9640020820971464  0.20544897946206805  1.0000
  C   C8        1.0  0.29846004034688317  0.0359979174877793  0.7945510206794272  1.0000
  C   C9        1.0  0.7615585507584504  0.7322669390887273  0.23141286412848783  1.0000
  C   C10       1.0  0.23844144987390828  0.26773306247134776  0.7685871360125845  1.0000
  C   C11       1.0  0.2674252377372317  0.9456901479257661  0.11968204943017609  1.0000
  C   C12       1.0  0.7325747610444835  0.05430985178541091  0.8803179503754629  1.0000
  C   C13       1.0  0.5968063224511656  0.8109201735997335  0.06339967786097647  1.0000
  C   C14       1.0  0.4031936782524158  0.18907982599083656  0.936600322280972  1.0000
  C   C15       1.0  0.7398923694421665  0.562930327114161  0.04819574683596508  1.0000
  C   C16       1.0  0.2601076313254764  0.43706967260266033  0.9518042529701272  1.0000
  C   C17       1.0  0.931082276686329  0.6238266121929333  0.0084641254383608  1.0000
  C   C18       1.0  0.06891772196010187  0.37617338936149725  0.9915358747022583  1.0000
  C   C19       1.0  0.2824152030632453  0.9627253774337511  0.35017738910019997  1.0000
  C   C20       1.0  0.7175847976403362  0.03727462215681914  0.6498226110417485  1.0000
  C   C21       1.0  0.32678070571095696  0.11394030256661335  0.3930108555685553  1.0000
  C   C22       1.0  0.6732192950566858  0.886059697150208  0.6069891442375369  1.0000
  C   C23       1.0  0.418164902460607  0.936250401451012  0.43538867110564833  1.0000
  C   C24       1.0  0.5818350982429744  0.06374959813955815  0.5646113290363001  1.0000
  C   C25       1.0  0.45246536659237274  0.08958745263096342  0.47894052692886435  1.0000
  C   C26       1.0  0.5475346321893425  0.9104125470802136  0.5210594728767747  1.0000
  N   N1        1.0  0.9704103329075758  0.5725191557661872  0.22188554539659286  1.0000
  N   N2        1.0  0.029589667860066993  0.42748084395063407  0.7781144544094993  1.0000
  N   N3        1.0  0.402509665520543  0.7506749830550572  0.09949923986583044  1.0000
  N   N4        1.0  0.5974903352470999  0.24932501666176407  0.9005007599402618  1.0000
  O   O1        1.0  0.29724107272219663  0.18423467987323888  0.10736219176449907  1.0000
  O   O2        1.0  0.7027589260595187  0.8157653198379381  0.8926378080411399  1.0000
  F   F1        1.0  0.09629384191656441  0.7771605473522749  0.3594171513154608  1.0000
  F   F2        1.0  0.9037061588510785  0.22283945236454636  0.6405828484906314  1.0000
  F   F3        1.0  0.5146750864982813  0.8370374391812871  0.33751506016289246  1.0000
  F   F4        1.0  0.48532491413407736  0.16296256237878787  0.66248493997818  1.0000
  F   F5        1.0  0.09282017451218298  0.24137013787966277  0.4036020799827453  1.0000
  F   F6        1.0  0.9071798261913985  0.7586298617109073  0.5963979201592032  1.0000
  F   F7        1.0  0.5160623378743472  0.2960146936902687  0.3821383982480897  1.0000
  F   F8        1.0  0.4839376627580115  0.7039853078698063  0.6178616018929827  1.0000
  F   F9        1.0  0.23300516613723382  0.7490923944594007  0.4449157086168178  1.0000
  F   F10       1.0  0.766994834630409  0.25090760525742073  0.5550842911892744  1.0000
  F   F11       1.0  0.6551180182252072  0.8155127411181268  0.4244863557251478  1.0000
  F   F12       1.0  0.34488198240715134  0.18448726044194833  0.5755136444159246  1.0000
  F   F13       1.0  0.2141234858122065  0.20729221878864953  0.48982298124173784  1.0000
  F   F14       1.0  0.785876514891375  0.7927077808019206  0.5101770189002106  1.0000
  F   F15       1.0  0.6349094685681024  0.279129332529411  0.46925740719633596  1.0000
  F   F16       1.0  0.3650905321995404  0.7208706671874102  0.5307425926097562  1.0000
  I   I1        1.0  0.14684503889714506  0.22972347951790947  0.29413253265561273  1.0000
  I   I2        1.0  0.8531549598205087  0.7702765200670164  0.7058674674858825  1.0000
