data_image0
_chemical_formula_structural       H28C44N8O4F32I4
_chemical_formula_sum              "H28 C44 N8 O4 F32 I4"
_cell_length_a       15.121990354198765
_cell_length_b       9.42988284386052
_cell_length_c       9.839021398313966
_cell_angle_alpha    90.0
_cell_angle_beta     94.67252344143722
_cell_angle_gamma    90.0

_space_group_name_H-M_alt    "P 1"
_space_group_IT_number       1

loop_
  _space_group_symop_operation_xyz
  'x, y, z'

loop_
  _atom_site_type_symbol
  _atom_site_label
  _atom_site_symmetry_multiplicity
  _atom_site_fract_x
  _atom_site_fract_y
  _atom_site_fract_z
  _atom_site_occupancy
  H   H1        1.0  0.3449530972329664  0.6705983281772291  0.8163982679237533  1.0000
  H   H2        1.0  0.6550469026701109  0.17059832838192523  0.6836017319326141  1.0000
  H   H3        1.0  0.655046902714418  0.32940167141337867  0.1836017316503308  1.0000
  H   H4        1.0  0.34495309733413754  0.8294016712086826  0.3163982686612111  1.0000
  H   H5        1.0  0.43450485155463014  0.4915120247774476  0.20778913795376053  1.0000
  H   H6        1.0  0.5654951484939255  0.9915120245727514  0.2922108623577813  1.0000
  H   H7        1.0  0.5654951483927544  0.5084879748131602  0.7922108616203236  1.0000
  H   H8        1.0  0.4345048515103229  0.008487975017856319  0.7077891382360438  1.0000
  H   H9        1.0  0.3412337035873947  0.27805318087351444  0.14405554799121503  1.0000
  H   H10       1.0  0.6587662964042971  0.7780531806688182  0.3559444513005858  1.0000
  H   H11       1.0  0.6587662963599898  0.7219468187170933  0.855944451582869  1.0000
  H   H12       1.0  0.3412337035430875  0.22194681892178944  0.6440555482734983  1.0000
  H   H13       1.0  0.25440196890890215  0.2740131359831578  0.916389772547115  1.0000
  H   H14       1.0  0.7455980316552276  0.7740131357784618  0.5836102273049104  1.0000
  H   H15       1.0  0.7455980317563987  0.7259868636074499  0.08361022804236819  1.0000
  H   H16       1.0  0.25440196829215694  0.22598686381214605  0.4163897722691737  1.0000
  H   H17       1.0  0.46120694922437294  0.7814868574743664  0.8530917539867662  1.0000
  H   H18       1.0  0.5387930506787043  0.28148685767906256  0.6469082458696013  1.0000
  H   H19       1.0  0.5387930507230115  0.21851314211624132  0.1469082455873179  1.0000
  H   H20       1.0  0.4612069492686802  0.7185131419115453  0.3530917537044829  1.0000
  H   H21       1.0  0.5600252606461432  0.9609157918541398  0.8868947988490689  1.0000
  H   H22       1.0  0.4399747393137979  0.4609157909983773  0.6131052020270396  1.0000
  H   H23       1.0  0.4399747393581051  0.039084208796926534  0.11310520174475622  1.0000
  H   H24       1.0  0.5600252606904506  0.5390842085922304  0.38689479856678566  1.0000
  H   H25       1.0  0.5795326517937783  0.9135198477686852  0.061428530257610366  1.0000
  H   H26       1.0  0.4204673482547772  0.4135198469129228  0.43857147005393154  1.0000
  H   H27       1.0  0.42046734815360615  0.08648015288238105  0.9385714693164738  1.0000
  H   H28       1.0  0.5795326517494711  0.5864801526776849  0.5614285305398936  1.0000
  C   C1        1.0  0.3468545095455014  0.58621558841519  0.8924615647787952  1.0000
  C   C2        1.0  0.6531454903575759  0.08621558861988607  0.6075384350775722  1.0000
  C   C3        1.0  0.653145490458747  0.41378441223587636  0.10753843581502999  1.0000
  C   C4        1.0  0.3468545095898086  0.9137844120311802  0.3924615644965119  1.0000
  C   C5        1.0  0.39704899381543507  0.5989275268331783  0.017917783475312886  1.0000
  C   C6        1.0  0.6029510062331205  0.09892752703787444  0.4820822168362289  1.0000
  C   C7        1.0  0.6029510061319495  0.40107247275742947  0.9820822160987712  1.0000
  C   C8        1.0  0.3970489937711279  0.9010724725527333  0.5179177837575962  1.0000
  C   C9        1.0  0.3952832963703348  0.4862961222244246  0.11017168020726925  1.0000
  C   C10       1.0  0.6047167036213569  0.9862961220197285  0.3898283190845316  1.0000
  C   C11       1.0  0.6047167035770498  0.5137038784266418  0.889828319366815  1.0000
  C   C12       1.0  0.3952832963260276  0.013703878631337894  0.6101716804895525  1.0000
  C   C13       1.0  0.34405815673143664  0.36757469921874136  0.07456471310487774  1.0000
  C   C14       1.0  0.6559418433171189  0.8675747000745039  0.4254352872066641  1.0000
  C   C15       1.0  0.6559418432159478  0.6324253003718665  0.9254352864692064  1.0000
  C   C16       1.0  0.3440581566871294  0.13242530057656257  0.5745647133871611  1.0000
  C   C17       1.0  0.2959734323858599  0.3646277071446995  0.9475187931268749  1.0000
  C   C18       1.0  0.7040265675172174  0.8646277069400033  0.5524812067294927  1.0000
  C   C19       1.0  0.7040265675615246  0.6353722935063668  0.05248120644720937  1.0000
  C   C20       1.0  0.295973432487031  0.13537229265060438  0.4475187938643325  1.0000
  C   C21       1.0  0.45081635627829697  0.7279183775299011  0.056120251333882945  1.0000
  C   C22       1.0  0.5491836437702586  0.22791837773459725  0.4438797489776589  1.0000
  C   C23       1.0  0.5491836437259514  0.2720816220607067  0.9438797492599422  1.0000
  C   C24       1.0  0.45081635617712584  0.7720816218560106  0.5561202505964252  1.0000
  C   C25       1.0  0.527570916330393  0.9362778261607204  0.9797458149101915  1.0000
  C   C26       1.0  0.47242908362954816  0.4362778263654165  0.5202541859659169  1.0000
  C   C27       1.0  0.4724290836738554  0.06372217342988741  0.02025418568363349  1.0000
  C   C28       1.0  0.5275709163747002  0.5637221732251914  0.47974581462790844  1.0000
  C   C29       1.0  0.19273949594631445  0.5785370243016239  0.3835085129180024  1.0000
  C   C30       1.0  0.8072605040453773  0.07853702450631998  0.1164914863737984  1.0000
  C   C31       1.0  0.8072605040010701  0.4214629752889839  0.6164914866560817  1.0000
  C   C32       1.0  0.19273949590200723  0.9214629750842879  0.8835085132002858  1.0000
  C   C33       1.0  0.1111323421023222  0.5044797415587451  0.3070152933497636  1.0000
  C   C34       1.0  0.8888676579462333  0.004479740702982675  0.1929847069617783  1.0000
  C   C35       1.0  0.8888676578450624  0.49552025909232117  0.6929847062243205  1.0000
  C   C36       1.0  0.11113234205801498  0.9955202588876252  0.8070152936320468  1.0000
  C   C37       1.0  0.0858072342803445  0.5619559328300794  0.15845629706743122  1.0000
  C   C38       1.0  0.9141927657682111  0.061955933034775416  0.3415437032441107  1.0000
  C   C39       1.0  0.91419276566704  0.4380440667605285  0.841543702506653  1.0000
  C   C40       1.0  0.08580723423603726  0.9380440665558324  0.6584562973497146  1.0000
  C   C41       1.0  0.01790573434920647  0.46644054892619397  0.07030560097750237  1.0000
  C   C42       1.0  0.9820942656993491  0.9664405497819564  0.4296943993340396  1.0000
  C   C43       1.0  0.9820942663160944  0.5335594506644139  0.9296943996119807  1.0000
  C   C44       1.0  0.017905734248035397  0.033559450869109955  0.5703056002400446  1.0000
  N   N1        1.0  0.29752791835590625  0.4719683185563265  0.8579460910581694  1.0000
  N   N2        1.0  0.7024720815471711  0.9719683183516304  0.6420539087981979  1.0000
  N   N3        1.0  0.7024720816483421  0.5280316820947399  0.14205390953565566  1.0000
  N   N4        1.0  0.2975279184002135  0.028031682299435985  0.35794609077588624  1.0000
  N   N5        1.0  0.4731197783661966  0.8114369262797151  0.953643288994755  1.0000
  N   N6        1.0  0.5268802215368806  0.31143692648441124  0.5463567108616124  1.0000
  N   N7        1.0  0.5268802215811879  0.18856307331089264  0.04635671057932919  1.0000
  N   N8        1.0  0.4731197784105039  0.6885630731061966  0.45364328871247156  1.0000
  O   O1        1.0  0.47468076418234384  0.7558241993049115  0.17841687255229188  1.0000
  O   O2        1.0  0.5253192358093479  0.25582419844914905  0.3215831267395089  1.0000
  O   O3        1.0  0.5253192357650407  0.24417580134615482  0.8215831270217921  1.0000
  O   O4        1.0  0.47468076413803656  0.7441758011414588  0.6784168728345752  1.0000
  F   F1        1.0  0.2670629010520707  0.549337554429178  0.3163928144127335  1.0000
  F   F2        1.0  0.7329370989396211  0.04933755357341549  0.18360718487906727  1.0000
  F   F3        1.0  0.7329370988953138  0.45066244622188845  0.6836071851613506  1.0000
  F   F4        1.0  0.2670629010077634  0.9506624460171922  0.8163928146950169  1.0000
  F   F5        1.0  0.17992027535249724  0.7219299309144942  0.37772838886333715  1.0000
  F   F6        1.0  0.8200797246391945  0.22192993111919035  0.12227161042846367  1.0000
  F   F7        1.0  0.8200797245948873  0.27807006867611356  0.622271610710747  1.0000
  F   F8        1.0  0.17992027530819002  0.7780700684714175  0.8777283891456206  1.0000
  F   F9        1.0  0.12948903305941875  0.3623272830186327  0.3008318559563931  1.0000
  F   F10       1.0  0.8705109669891369  0.8623272828139367  0.19916814435514882  1.0000
  F   F11       1.0  0.8705109669448295  0.6376727165719751  0.6991681446374322  1.0000
  F   F12       1.0  0.1294890330151115  0.13767271677667117  0.8008318562386764  1.0000
  F   F13       1.0  0.03983327667182664  0.5233442145268072  0.38124895297577205  1.0000
  F   F14       1.0  0.9601667233767289  0.023344214731503405  0.11875104733576984  1.0000
  F   F15       1.0  0.9601667232755579  0.4766557850638005  0.618751046598312  1.0000
  F   F16       1.0  0.03983327662751941  0.9766557859195629  0.8812489532580554  1.0000
  F   F17       1.0  0.16109454974835227  0.5720700107650024  0.09127241047125227  1.0000
  F   F18       1.0  0.8389054503002034  0.07207001096969856  0.4087275898402897  1.0000
  F   F19       1.0  0.8389054501990322  0.42792998882560535  0.9087275891028318  1.0000
  F   F20       1.0  0.16109454970404505  0.9279299896813678  0.5912724107535355  1.0000
  F   F21       1.0  0.050689105495395154  0.694091336910019  0.16998552645782786  1.0000
  F   F22       1.0  0.9493108945531605  0.19409133711471505  0.3300144738537141  1.0000
  F   F23       1.0  0.9493108944519894  0.30590866268058886  0.8300144731162564  1.0000
  F   F24       1.0  0.050689105451087915  0.8059086624758928  0.6699855267401111  1.0000
  F   F25       1.0  0.05928914004567714  0.3415605711471807  0.0452065700611124  1.0000
  F   F26       1.0  0.9407108600028785  0.8415605709424846  0.45479343025042945  1.0000
  F   F27       1.0  0.9407108599017073  0.6584394284434271  0.9547934295129719  1.0000
  F   F28       1.0  0.0592891400013699  0.1584394286481232  0.5452065703433957  1.0000
  F   F29       1.0  0.94723575779044  0.44021839706128607  0.14441173849159175  1.0000
  F   F30       1.0  0.052764241597063145  0.94021839685659  0.35558826182429226  1.0000
  F   F31       1.0  0.05276424221380839  0.5597816025293217  0.8555882621022335  1.0000
  F   F32       1.0  0.9472357584071852  0.05978160273401784  0.644411738769533  1.0000
  I   I1        1.0  0.22048961082985047  0.5124227744935357  0.5959623903435591  1.0000
  I   I2        1.0  0.7795103891300906  0.012422774698231736  0.9040376105325495  1.0000
  I   I3        1.0  0.779510389174398  0.48757722509707213  0.4040376102502661  1.0000
  I   I4        1.0  0.22048961087415775  0.9875772259528347  0.0959623900612758  1.0000
