data_image0
_chemical_formula_structural       H72C88N16O8F48I8
_chemical_formula_sum              "H72 C88 N16 O8 F48 I8"
_cell_length_a       50.095699110813065
_cell_length_b       5.573916656660509
_cell_length_c       9.678187880337948
_cell_angle_alpha    90.0
_cell_angle_beta     95.23690463466392
_cell_angle_gamma    90.0

_space_group_name_H-M_alt    "P 1"
_space_group_IT_number       1

loop_
  _space_group_symop_operation_xyz
  'x, y, z'

loop_
  _atom_site_type_symbol
  _atom_site_label
  _atom_site_symmetry_multiplicity
  _atom_site_fract_x
  _atom_site_fract_y
  _atom_site_fract_z
  _atom_site_occupancy
  H   H1        1.0  0.08732344939407759  0.5462218575446198  0.12473759999794364  1.0000
  H   H2        1.0  0.9126765505219268  0.5462218575446198  0.37526240039925796  1.0000
  H   H3        1.0  0.5873234494997764  0.04622185724505567  0.1247375995913317  1.0000
  H   H4        1.0  0.41267655061584  0.04622185724505567  0.3752624008055433  1.0000
  H   H5        1.0  0.9126765506073985  0.4537781412604379  0.875262400571448  1.0000
  H   H6        1.0  0.08732344946119024  0.4537781412604379  0.6247375991325513  1.0000
  H   H7        1.0  0.41267655050169966  0.953778141560002  0.8752624009780597  1.0000
  H   H8        1.0  0.5873234493856361  0.953778141560002  0.6247375997638481  1.0000
  H   H9        1.0  0.0726568974883835  0.03425819612351451  0.7920401823785598  1.0000
  H   H10       1.0  0.9273431025802052  0.03425819612351451  0.7079598173254394  1.0000
  H   H11       1.0  0.5726568974128293  0.5342581964230787  0.7920401830098567  1.0000
  H   H12       1.0  0.42734310265575937  0.5342581964230787  0.7079598166941424  1.0000
  H   H13       1.0  0.9273431024947334  0.9657418026815432  0.2079598171532495  1.0000
  H   H14       1.0  0.07265689742127086  0.9657418026815432  0.2920401832439521  1.0000
  H   H15       1.0  0.4273431025886468  0.46574180417604966  0.20795981755953483  1.0000
  H   H16       1.0  0.5726568973273576  0.46574180417604966  0.29204018283766675  1.0000
  H   H17       1.0  0.11243700070507197  0.800367390615564  0.8989158018708425  1.0000
  H   H18       1.0  0.8875629993635167  0.800367390615564  0.6010841978331566  1.0000
  H   H19       1.0  0.6124370008291299  0.30036739031599985  0.8989158025018129  1.0000
  H   H20       1.0  0.38756299925781784  0.30036739031599985  0.6010841982397687  1.0000
  H   H21       1.0  0.8875629992780448  0.19963260998356427  0.10108419766096667  1.0000
  H   H22       1.0  0.11243700081921235  0.19963260998356427  0.39891580169832597  1.0000
  H   H23       1.0  0.3875629993719583  0.6996326102831285  0.101084198067252  1.0000
  H   H24       1.0  0.6124370007436581  0.6996326102831285  0.3989158023296229  1.0000
  H   H25       1.0  0.13706969672356048  0.9545107969353063  0.11625274310381073  1.0000
  H   H26       1.0  0.8629303033736969  0.9545107969353063  0.3837472562554819  1.0000
  H   H27       1.0  0.6370696966480063  0.4545107966357421  0.11625274373510767  1.0000
  H   H28       1.0  0.3629303032679979  0.4545107966357421  0.38374725666209386  1.0000
  H   H29       1.0  0.8629303032595564  0.04548920366382206  0.8837472564279985  1.0000
  H   H30       1.0  0.1370696966094201  0.04548920366382206  0.6162527432763272  1.0000
  H   H31       1.0  0.3629303033534698  0.5454892039633862  0.8837472568342838  1.0000
  H   H32       1.0  0.637069696733478  0.5454892039633862  0.6162527439072976  1.0000
  H   H33       1.0  0.04567597406992046  0.5891150554029533  0.07805070470821507  1.0000
  H   H34       1.0  0.9543240258277247  0.5891150554029533  0.4219492946514041  1.0000
  H   H35       1.0  0.5456759739943663  0.08911505510338917  0.07805070533951203  1.0000
  H   H36       1.0  0.454324025921638  0.08911505510338917  0.4219492950576895  1.0000
  H   H37       1.0  0.9543240259131964  0.41088494519617497  0.9219492948235941  1.0000
  H   H38       1.0  0.045675974155392235  0.41088494519617497  0.578050704880405  1.0000
  H   H39       1.0  0.4543240260071097  0.9108849437016684  0.9219492952298795  1.0000
  H   H40       1.0  0.545675974079838  0.9108849437016684  0.578050705511702  1.0000
  H   H41       1.0  0.0018542857814637813  0.6338625884867066  0.8788240038836694  1.0000
  H   H42       1.0  0.9981457140875127  0.6338625884867066  0.6211759958206563  1.0000
  H   H43       1.0  0.5018542859055217  0.13386258818714253  0.8788240045146399  1.0000
  H   H44       1.0  0.49814571418142606  0.13386258818714253  0.6211759962269416  1.0000
  H   H45       1.0  0.9981457142016531  0.3661374121124216  0.12117599564813977  1.0000
  H   H46       1.0  0.0018542858956041687  0.3661374121124216  0.3788240037111529  1.0000
  H   H47       1.0  0.49814571409595426  0.8661374124119857  0.12117599605475174  1.0000
  H   H48       1.0  0.50185428582005  0.8661374124119857  0.37882400434244984  1.0000
  H   H49       1.0  0.02525696758264395  0.8446472023176415  0.8276417694153547  1.0000
  H   H50       1.0  0.9747430324859447  0.8446472023176415  0.6723582302886445  1.0000
  H   H51       1.0  0.5252569674887306  0.34464720201807725  0.8276417690090693  1.0000
  H   H52       1.0  0.4747430323802459  0.34464720201807725  0.6723582306952566  1.0000
  H   H53       1.0  0.974743032400473  0.1553527982814869  0.17235823011645454  1.0000
  H   H54       1.0  0.025256967497172166  0.1553527982814869  0.32764176924316474  1.0000
  H   H55       1.0  0.4747430324943863  0.655352798581051  0.17235823052273988  1.0000
  H   H56       1.0  0.5252569676212301  0.655352798581051  0.327641769874135  1.0000
  H   H57       1.0  0.028837867839681713  0.025404895466241043  0.06720932269736062  1.0000
  H   H58       1.0  0.9711621322759346  0.025404895466241043  0.43279067769951435  1.0000
  H   H59       1.0  0.5288378677457684  0.5254048957658052  0.06720932229107529  1.0000
  H   H60       1.0  0.47116213217023584  0.5254048957658052  0.43279067810612626  1.0000
  H   H61       1.0  0.9711621321617943  0.9745951051328873  0.9327906778720308  1.0000
  H   H62       1.0  0.028837867906794355  0.9745951051328873  0.5672093218319684  1.0000
  H   H63       1.0  0.4711621322557077  0.4745951048333231  0.9327906782783162  1.0000
  H   H64       1.0  0.5288378678312401  0.4745951048333231  0.5672093224632652  1.0000
  H   H65       1.0  0.005137608994985089  0.815834087609855  0.11790515280568237  1.0000
  H   H66       1.0  0.9948623911206314  0.815834087609855  0.38209484759119255  1.0000
  H   H67       1.0  0.5051376089010717  0.3158340873102909  0.11790515239939701  1.0000
  H   H68       1.0  0.49486239099657336  0.3158340873102909  0.3820948469602223  1.0000
  H   H69       1.0  0.994862391006491  0.18416591298927323  0.8820948477637092  1.0000
  H   H70       1.0  0.005137608880844702  0.18416591298927323  0.6179051529781989  1.0000
  H   H71       1.0  0.4948623910820451  0.6841659132888374  0.8820948471324123  1.0000
  H   H72       1.0  0.5051376089865436  0.6841659132888374  0.617905152571587  1.0000
  C   C1        1.0  0.18556573570596396  0.7721414770091952  0.3781843574292951  1.0000
  C   C2        1.0  0.814434264191681  0.7721414770091952  0.12181564193032413  1.0000
  C   C3        1.0  0.6855657358300219  0.27214147670963096  0.37818435806026546  1.0000
  C   C4        1.0  0.31443426428559446  0.27214147670963096  0.12181564233660946  1.0000
  C   C5        1.0  0.814434264277153  0.22785852358993317  0.621815642102514  1.0000
  C   C6        1.0  0.18556573579143576  0.22785852358993317  0.8781843576014852  1.0000
  C   C7        1.0  0.3144342641714541  0.7278585238894972  0.621815642509126  1.0000
  C   C8        1.0  0.6855657357158815  0.7278585238894972  0.8781843582327822  1.0000
  C   C9        1.0  0.21296299298715907  0.6440254691843056  0.41674854050330307  1.0000
  C   C10       1.0  0.7870370071284575  0.6440254691843056  0.08325145989357179  1.0000
  C   C11       1.0  0.7129629928932457  0.1440254688847414  0.41674854009701784  1.0000
  C   C12       1.0  0.28703700702275853  0.1440254688847414  0.08325146030018375  1.0000
  C   C13       1.0  0.7870370070143169  0.3559745314148227  0.5832514600660883  1.0000
  C   C14       1.0  0.2129629928546595  0.3559745314148227  0.9167485396382374  1.0000
  C   C15       1.0  0.2870370070898712  0.8559745299203162  0.5832514594347914  1.0000
  C   C16       1.0  0.7129629929787175  0.8559745299203162  0.9167485402692077  1.0000
  C   C17       1.0  0.23581185945377742  0.8112712045302151  0.48695423188856524  1.0000
  C   C18       1.0  0.764188140661839  0.8112712045302151  0.013045768508309753  1.0000
  C   C19       1.0  0.735811859359864  0.31127120602472147  0.4869542314822799  1.0000
  C   C20       1.0  0.2641881405561402  0.31127120602472147  0.013045768914921705  1.0000
  C   C21       1.0  0.7641881405476987  0.18872879427484268  0.5130457686808263  1.0000
  C   C22       1.0  0.23581185932127785  0.18872879427484268  0.9869542310234993  1.0000
  C   C23       1.0  0.26418814062325285  0.6887287945744068  0.5130457680495293  1.0000
  C   C24       1.0  0.7358118594453358  0.6887287945744068  0.9869542316544698  1.0000
  C   C25       1.0  0.09188212778542033  0.3790017738201477  0.0729268823610104  1.0000
  C   C26       1.0  0.9081178721305839  0.3790017738201477  0.4270731180361911  1.0000
  C   C27       1.0  0.5918821278911192  0.8790017741197118  0.07292688195439845  1.0000
  C   C28       1.0  0.40811787222449725  0.8790017741197118  0.42707311844247653  1.0000
  C   C29       1.0  0.9081178722160557  0.6209982267789806  0.9270731182083812  1.0000
  C   C30       1.0  0.09188212785253295  0.6209982267789806  0.572926881495618  1.0000
  C   C31       1.0  0.40811787209199774  0.12099822647941645  0.9270731175774107  1.0000
  C   C32       1.0  0.5918821277769788  0.12099822647941645  0.572926882126915  1.0000
  C   C33       1.0  0.07643477466518683  0.30384043829867247  0.9525138326150768  1.0000
  C   C34       1.0  0.9235652254034019  0.30384043829867247  0.5474861670889225  1.0000
  C   C35       1.0  0.5764347745896327  0.8038404368041661  0.9525138332463737  1.0000
  C   C36       1.0  0.423565225297703  0.8038404368041661  0.5474861674955342  1.0000
  C   C37       1.0  0.9235652253179301  0.6961595623004558  0.04748616691673246  1.0000
  C   C38       1.0  0.07643477457971506  0.6961595623004558  0.4525138324428868  1.0000
  C   C39       1.0  0.4235652254118434  0.19615956200089169  0.047486167323017796  1.0000
  C   C40       1.0  0.576434774703773  0.19615956200089169  0.45251383307385706  1.0000
  C   C41       1.0  0.08395714423324777  0.093008875434209  0.8877665362506455  1.0000
  C   C42       1.0  0.916042855835341  0.093008875434209  0.6122334634533536  1.0000
  C   C43       1.0  0.5839571441576936  0.5930088739397026  0.8877665368819423  1.0000
  C   C44       1.0  0.41604285572964206  0.5930088739397026  0.6122334638599657  1.0000
  C   C45       1.0  0.9160428557498691  0.9069911251649192  0.11223346328116376  1.0000
  C   C46       1.0  0.08395714416613513  0.9069911251649192  0.3877665371160378  1.0000
  C   C47       1.0  0.4160428558437825  0.40699112486535516  0.1122334636874491  1.0000
  C   C48       1.0  0.583957144271834  0.40699112486535516  0.3877665367094259  1.0000
  C   C49       1.0  0.1058075283569273  0.9638596360389071  0.9469631821921292  1.0000
  C   C50       1.0  0.8941924717116615  0.9638596360389071  0.5530368175118702  1.0000
  C   C51       1.0  0.605807528263014  0.4638596357393429  0.9469631817858438  1.0000
  C   C52       1.0  0.3941924716059625  0.4638596357393429  0.5530368179184821  1.0000
  C   C53       1.0  0.8941924716445488  0.03614036276615058  0.053036818377262464  1.0000
  C   C54       1.0  0.10580752827145552  0.03614036276615058  0.4469631820199391  1.0000
  C   C55       1.0  0.3941924717201029  0.5361403630657147  0.05303681774596551  1.0000
  C   C56       1.0  0.6058075283771543  0.5361403630657147  0.4469631816133271  1.0000
  C   C57       1.0  0.11975939665783185  0.05121577296260375  0.06790541251760307  1.0000
  C   C58       1.0  0.8802406032398131  0.05121577296260375  0.4320945868420162  1.0000
  C   C59       1.0  0.6197593967818898  0.5512157732621679  0.0679054131485734  1.0000
  C   C60       1.0  0.38024060333372656  0.5512157732621679  0.4320945872483015  1.0000
  C   C61       1.0  0.8802406033252852  0.9487842258424539  0.9320945870142061  1.0000
  C   C62       1.0  0.11975939674330362  0.9487842258424539  0.567905412689793  1.0000
  C   C63       1.0  0.38024060321958625  0.44878422733696044  0.9320945874208181  1.0000
  C   C64       1.0  0.6197593968490025  0.44878422733696044  0.567905412283181  1.0000
  C   C65       1.0  0.053227819744249324  0.4447796303228792  0.8886377027116955  1.0000
  C   C66       1.0  0.9467721803243393  0.4447796303228792  0.6113622969923036  1.0000
  C   C67       1.0  0.5532278196686952  0.9447796306224433  0.8886377033429923  1.0000
  C   C68       1.0  0.4467721803998935  0.9447796306224433  0.6113622963610067  1.0000
  C   C69       1.0  0.9467721802388676  0.5552203702762492  0.11136229682011373  1.0000
  C   C70       1.0  0.053227819677136676  0.5552203702762492  0.3886377035770878  1.0000
  C   C71       1.0  0.44677218033278093  0.055220369976684926  0.11136229722639907  1.0000
  C   C72       1.0  0.5532278197828354  0.055220369976684926  0.3886377031704758  1.0000
  C   C73       1.0  0.019116572781466435  0.745231607479523  0.9178350540830414  1.0000
  C   C74       1.0  0.9808834272871223  0.745231607479523  0.5821649456209578  1.0000
  C   C75       1.0  0.5191165727059123  0.24523160717995895  0.9178350547143382  1.0000
  C   C76       1.0  0.4808834271814234  0.24523160717995895  0.5821649460275697  1.0000
  C   C77       1.0  0.9808834272016506  0.2547683931196052  0.08216494544876785  1.0000
  C   C78       1.0  0.019116572695994656  0.2547683931196052  0.4178350539108515  1.0000
  C   C79       1.0  0.4808834272955638  0.7547683916250987  0.08216494585505316  1.0000
  C   C80       1.0  0.5191165728200526  0.7547683916250987  0.41783505454182174  1.0000
  C   C81       1.0  0.011277497248068735  0.9176577898573227  0.02856640705151938  1.0000
  C   C82       1.0  0.9887225026679355  0.9176577898573227  0.4714335933456822  1.0000
  C   C83       1.0  0.5112774973537675  0.4176577895577586  0.02856640664490743  1.0000
  C   C84       1.0  0.4887225027618488  0.4176577895577586  0.4714335937519676  1.0000
  C   C85       1.0  0.9887225027534073  0.08234221074180557  0.9714335935178721  1.0000
  C   C86       1.0  0.011277497333540516  0.08234221074180557  0.5285664072237094  1.0000
  C   C87       1.0  0.4887225026293493  0.5823422110413697  0.9714335928869018  1.0000
  C   C88       1.0  0.5112774972396272  0.5823422110413697  0.528566406817424  1.0000
  N   N1        1.0  0.11309996303554103  0.25600697102186903  0.12949973099641382  1.0000
  N   N2        1.0  0.8869000368804631  0.25600697102186903  0.37050026940078773  1.0000
  N   N3        1.0  0.6130999631412398  0.7560069713214331  0.12949973058980185  1.0000
  N   N4        1.0  0.38690003695601743  0.7560069713214331  0.37050026876949077  1.0000
  N   N5        1.0  0.8869000369659349  0.7439930277831887  0.8705002695729777  1.0000
  N   N6        1.0  0.11309996312101281  0.7439930277831887  0.6294997311686037  1.0000
  N   N7        1.0  0.38690003684187707  0.2439930274836245  0.8705002689420074  1.0000
  N   N8        1.0  0.6130999630270995  0.2439930274836245  0.6294997307623184  1.0000
  N   N9        1.0  0.041163549463538604  0.5936822747512333  0.9721854859643735  1.0000
  N   N10       1.0  0.9588364504054379  0.5936822747512333  0.5278145137399523  1.0000
  N   N11       1.0  0.5411635495692374  0.09368227445166916  0.9721854855577615  1.0000
  N   N12       1.0  0.45883645049935123  0.09368227445166916  0.5278145141462375  1.0000
  N   N13       1.0  0.9588364505195783  0.406317725847895  0.027814513567435657  1.0000
  N   N14       1.0  0.04116354957767899  0.406317725847895  0.472185485791857  1.0000
  N   N15       1.0  0.4588364504138795  0.9063177261474592  0.02781451397404761  1.0000
  N   N16       1.0  0.5411635495021248  0.9063177261474592  0.47218548642315394  1.0000
  O   O1        1.0  0.04545556554707831  0.42488709930207436  0.7621063896842333  1.0000
  O   O2        1.0  0.9545444345215103  0.42488709930207436  0.7378936100197659  1.0000
  O   O3        1.0  0.545455565453165  0.924887097807568  0.7621063892779479  1.0000
  O   O4        1.0  0.45454443441581155  0.924887097807568  0.7378936104263778  1.0000
  O   O5        1.0  0.9545444344360385  0.5751129012970538  0.237893609847576  1.0000
  O   O6        1.0  0.04545556546160653  0.5751129012970538  0.2621063895120433  1.0000
  O   O7        1.0  0.4545444345299519  0.07511290099748977  0.23789361025386133  1.0000
  O   O8        1.0  0.5454555655856645  0.07511290099748977  0.2621063901430136  1.0000
  F   F1        1.0  0.1769978063353853  0.8766027321491037  0.493855078905291  1.0000
  F   F2        1.0  0.823002193761872  0.8766027321491037  0.0061449204540016235  1.0000
  F   F3        1.0  0.6769978062598312  0.3766027336436102  0.4938550795365879  1.0000
  F   F4        1.0  0.3230021936561731  0.3766027336436102  0.006144920860613579  1.0000
  F   F5        1.0  0.8230021936477316  0.12339726665595392  0.5061449206265182  1.0000
  F   F6        1.0  0.17699780622124495  0.12339726665595392  0.9938550790778076  1.0000
  F   F7        1.0  0.3230021937416449  0.6233972669555181  0.5061449210328035  1.0000
  F   F8        1.0  0.6769978063453029  0.6233972669555181  0.9938550797087781  1.0000
  F   F9        1.0  0.1887222465700551  0.9486017096581144  0.2836129926077435  1.0000
  F   F10       1.0  0.8112777535272022  0.9486017096581144  0.21638700675154923  1.0000
  F   F11       1.0  0.688722246494501  0.4486017093585503  0.28361299323904043  1.0000
  F   F12       1.0  0.3112777534215033  0.4486017093585503  0.21638700715816114  1.0000
  F   F13       1.0  0.8112777534130617  0.05139829094101385  0.7163870069240658  1.0000
  F   F14       1.0  0.1887222464559147  0.05139829094101385  0.78361299278026  1.0000
  F   F15       1.0  0.3112777535069751  0.5513982894465074  0.7163870073303511  1.0000
  F   F16       1.0  0.6887222465799726  0.5513982894465074  0.7836129934112304  1.0000
  F   F17       1.0  0.20859720773462392  0.4613536958661105  0.5061304221574671  1.0000
  F   F18       1.0  0.7914027921527117  0.4613536958661105  0.9938695785844408  1.0000
  F   F19       1.0  0.7085972078403228  0.961353694371604  0.5061304217508551  1.0000
  F   F20       1.0  0.29140279222826587  0.961353694371604  0.9938695779531439  1.0000
  F   F21       1.0  0.7914027922668521  0.5386463047330178  0.49386957841192436  1.0000
  F   F22       1.0  0.20859720784876434  0.5386463047330178  0.006130421984950549  1.0000
  F   F23       1.0  0.2914027921427941  0.03864630443345362  0.49386957778095414  1.0000
  F   F24       1.0  0.708597207754851  0.03864630443345362  0.0061304215786652195  1.0000
  F   F25       1.0  0.22119353677240008  0.5494792420945492  0.2979464980683275  1.0000
  F   F26       1.0  0.7788064633248571  0.5494792420945492  0.20205350129096505  1.0000
  F   F27       1.0  0.7211935366968459  0.04947924179498505  0.29794649869962453  1.0000
  F   F28       1.0  0.27880646321915836  0.04947924179498505  0.20205350169757702  1.0000
  F   F29       1.0  0.7788064632107169  0.45052075850457907  0.7020535014634816  1.0000
  F   F30       1.0  0.2211935366582597  0.45052075850457907  0.7979464982408441  1.0000
  F   F31       1.0  0.27880646330463016  0.9505207588041432  0.702053501869767  1.0000
  F   F32       1.0  0.7211935367823177  0.9505207588041432  0.7979464988718145  1.0000
  F   F33       1.0  0.22794674116898872  0.8858053239996126  0.6110728242595224  1.0000
  F   F34       1.0  0.772053258718347  0.8858053239996126  0.8889271764823856  1.0000
  F   F35       1.0  0.7279467412746876  0.38580532370004855  0.6110728238529105  1.0000
  F   F36       1.0  0.27205325879390113  0.38580532370004855  0.8889271758510886  1.0000
  F   F37       1.0  0.7720532588324873  0.1141946765995156  0.3889271763098691  1.0000
  F   F38       1.0  0.22794674128312906  0.1141946765995156  0.11107282408700585  1.0000
  F   F39       1.0  0.2720532587267885  0.6141946768990797  0.388927176716481  1.0000
  F   F40       1.0  0.7279467411892158  0.6141946768990797  0.11107282368072052  1.0000
  F   F41       1.0  0.23831885102959288  0.006784003480714963  0.4042527985729972  1.0000
  F   F42       1.0  0.7616811490860236  0.006784003480714963  0.0957472018238778  1.0000
  F   F43       1.0  0.7383188509356796  0.5067840019862084  0.4042527981667118  1.0000
  F   F44       1.0  0.2616811489803247  0.5067840019862084  0.09574720223048977  1.0000
  F   F45       1.0  0.7616811489718831  0.9932159971184134  0.5957472019963943  1.0000
  F   F46       1.0  0.2383188508970934  0.9932159971184134  0.9042527977079313  1.0000
  F   F47       1.0  0.26168114904743733  0.49321599681884915  0.5957472013650974  1.0000
  F   F48       1.0  0.7383188510211512  0.49321599681884915  0.9042527983389018  1.0000
  I   I1        1.0  0.1549229388365436  0.5231725785701162  0.2865890763630298  1.0000
  I   I2        1.0  0.8450770610794607  0.5231725785701162  0.2134109240341717  1.0000
  I   I3        1.0  0.6549229389422424  0.02317257827055215  0.2865890759564179  1.0000
  I   I4        1.0  0.34507706115501485  0.02317257827055215  0.21341092340287476  1.0000
  I   I5        1.0  0.8450770611649324  0.476827422029012  0.7134109242063615  1.0000
  I   I6        1.0  0.15492293892201536  0.476827422029012  0.7865890765352197  1.0000
  I   I7        1.0  0.3450770610408745  0.9768274223285762  0.7134109235753914  1.0000
  I   I8        1.0  0.6549229388281022  0.9768274223285762  0.7865890761289345  1.0000
