data_image0
_chemical_formula_structural       H44C16N4O20
_chemical_formula_sum              "H44 C16 N4 O20"
_cell_length_a       12.189972732520118
_cell_length_b       9.827244620786802
_cell_length_c       5.724329591497817
_cell_angle_alpha    90.0
_cell_angle_beta     90.0
_cell_angle_gamma    90.0

_space_group_name_H-M_alt    "P 1"
_space_group_IT_number       1

loop_
  _space_group_symop_operation_xyz
  'x, y, z'

loop_
  _atom_site_type_symbol
  _atom_site_label
  _atom_site_symmetry_multiplicity
  _atom_site_fract_x
  _atom_site_fract_y
  _atom_site_fract_z
  _atom_site_occupancy
  H   H1        1.0  0.22533936213589198  0.8211840715687702  0.16875986516129807  1.0000
  H   H2        1.0  0.774660637657371  0.17881592835116658  0.16875986516129807  1.0000
  H   H3        1.0  0.7253393624426966  0.6788159283111349  0.8312401345770438  1.0000
  H   H4        1.0  0.2746606373505663  0.32118407160880175  0.8312401345770438  1.0000
  H   H5        1.0  0.12895605548044695  0.9572854816395937  0.1275203896512531  1.0000
  H   H6        1.0  0.871043944312816  0.04271451828034298  0.1275203896512531  1.0000
  H   H7        1.0  0.6289560557872516  0.5427145182403114  0.8724796100870889  1.0000
  H   H8        1.0  0.3710439440060113  0.4572854816796254  0.8724796100870889  1.0000
  H   H9        1.0  0.3986588942102852  0.014388889811585743  0.5686683808065355  1.0000
  H   H10       1.0  0.601341106403324  0.985611110108351  0.5686683808065355  1.0000
  H   H11       1.0  0.8986588936967436  0.4856111101483826  0.43133162067873604  1.0000
  H   H12       1.0  0.1013411060965194  0.5143888897715541  0.43133162067873604  1.0000
  H   H13       1.0  0.39329580428100336  0.8626419731191419  0.3914785660365229  1.0000
  H   H14       1.0  0.6067041955122596  0.13735802680079479  0.3914785660365229  1.0000
  H   H15       1.0  0.893295804587808  0.6373580267607631  0.6085214337018192  1.0000
  H   H16       1.0  0.10670419520545496  0.36264197315917357  0.6085214337018192  1.0000
  H   H17       1.0  0.304923905209717  0.8787154704314896  0.6406640972328085  1.0000
  H   H18       1.0  0.6950760954038924  0.12128452948844709  0.6406640972328085  1.0000
  H   H19       1.0  0.8049239046961753  0.6212845294484155  0.35933590250553354  1.0000
  H   H20       1.0  0.19507609509708762  0.37871547047152126  0.35933590250553354  1.0000
  H   H21       1.0  0.3570090832434778  0.9971434881424012  0.04743362793143313  1.0000
  H   H22       1.0  0.6429909165497851  0.002856511777535511  0.04743362793143313  1.0000
  H   H23       1.0  0.8570090835502825  0.5028565117375039  0.952566371806909  1.0000
  H   H24       1.0  0.14299091624298046  0.4971434881824328  0.952566371806909  1.0000
  H   H25       1.0  0.3746384114393229  0.14641361699255245  0.22581227361888762  1.0000
  H   H26       1.0  0.6253615883539401  0.8535863829273843  0.22581227361888762  1.0000
  H   H27       1.0  0.8746384117461277  0.3535863829674159  0.7741877278663839  1.0000
  H   H28       1.0  0.12536158804713535  0.6464136169525209  0.7741877278663839  1.0000
  H   H29       1.0  0.2507029176404235  0.1259537396048761  0.054685048265729196  1.0000
  H   H30       1.0  0.7492970821528394  0.8740462603150606  0.054685048265729196  1.0000
  H   H31       1.0  0.7507029179472282  0.37404626035509225  0.9453149514726129  1.0000
  H   H32       1.0  0.24929708266638112  0.6259537395648445  0.9453149514726129  1.0000
  H   H33       1.0  0.16052696121129492  0.047011774696518245  0.5939668734396453  1.0000
  H   H34       1.0  0.839473038581968  0.9529882252234184  0.5939668734396453  1.0000
  H   H35       1.0  0.6605269615180996  0.4529882252634502  0.4060331262986967  1.0000
  H   H36       1.0  0.3394730390955097  0.5470117746564865  0.4060331262986967  1.0000
  H   H37       1.0  0.9942487268791762  0.8652049753615735  0.8054734788241898  1.0000
  H   H38       1.0  0.0057512729140868305  0.13479502455836326  0.8054734788241898  1.0000
  H   H39       1.0  0.49424872657237146  0.6347950245183316  0.19452652091415215  1.0000
  H   H40       1.0  0.5057512732208915  0.3652049754016051  0.19452652091415215  1.0000
  H   H41       1.0  0.9801563672185417  0.7255181136855797  0.13349432239803125  1.0000
  H   H42       1.0  0.019843633395067627  0.27448188623435704  0.13349432239803125  1.0000
  H   H43       1.0  0.4801563669117371  0.7744818861943253  0.8665056773403108  1.0000
  H   H44       1.0  0.5198436328815259  0.2255181137256113  0.8665056773403108  1.0000
  C   C1        1.0  0.1788038322830106  0.9018018592164099  0.25613763089003977  1.0000
  C   C2        1.0  0.8211961683305987  0.09819814070352688  0.25613763089003977  1.0000
  C   C3        1.0  0.6788038317694689  0.5981981406634952  0.7438623688483023  1.0000
  C   C4        1.0  0.321196168023794  0.40180185925644146  0.7438623688483023  1.0000
  C   C5        1.0  0.3464145115546123  0.9333047943672409  0.5000128232048694  1.0000
  C   C6        1.0  0.6535854882386506  0.06669520555269583  0.5000128232048694  1.0000
  C   C7        1.0  0.846414511861417  0.5666952065302434  0.4999871765334726  1.0000
  C   C8        1.0  0.15358548793184595  0.43330479440727254  0.4999871765334726  1.0000
  C   C9        1.0  0.31543823553779665  0.07442018675845745  0.15301536293454604  1.0000
  C   C10       1.0  0.6845617642554663  0.9255798131614792  0.15301536293454604  1.0000
  C   C11       1.0  0.8154382358446013  0.4255798132015109  0.846984636803796  1.0000
  C   C12       1.0  0.18456176476900799  0.5744201867184258  0.846984636803796  1.0000
  C   C13       1.0  0.10343533063337138  0.8401996621245121  0.4409645443457975  1.0000
  C   C14       1.0  0.8965646691598916  0.15980033779542457  0.4409645443457975  1.0000
  C   C15       1.0  0.6034353309401761  0.6598003377553929  0.5590354553925445  1.0000
  C   C16       1.0  0.3965646696734333  0.3401996621645438  0.5590354553925445  1.0000
  N   N1        1.0  0.26190110593791116  0.0013315014029794622  0.35065482130542086  1.0000
  N   N2        1.0  0.7380988938553519  0.9986684985169574  0.35065482130542086  1.0000
  N   N3        1.0  0.7619011062447157  0.49866849855698886  0.6493451784329212  1.0000
  N   N4        1.0  0.2380988943688935  0.5013315013629479  0.6493451784329212  1.0000
  O   O1        1.0  0.046014278481822206  0.7405902591053343  0.37881186178041315  1.0000
  O   O2        1.0  0.9539857213114408  0.25940974081460244  0.37881186178041315  1.0000
  O   O3        1.0  0.5460142787886269  0.75940974179215  0.6211881379579288  1.0000
  O   O4        1.0  0.4539857210046361  0.24059025914536594  0.6211881379579288  1.0000
  O   O5        1.0  0.102639329673163  0.8950035426406033  0.6437192078305587  1.0000
  O   O6        1.0  0.8973606701201  0.10499645727933336  0.6437192078305587  1.0000
  O   O7        1.0  0.6026393291596213  0.6049964572393017  0.3562807936547128  1.0000
  O   O8        1.0  0.39736067063364167  0.395003542680635  0.3562807936547128  1.0000
  O   O9        1.0  0.20709941977680574  0.10423490810774057  0.4846344145033945  1.0000
  O   O10       1.0  0.7929005800164571  0.8957650918121962  0.4846344145033945  1.0000
  O   O11       1.0  0.707099419263264  0.3957650918522278  0.5153655852349475  1.0000
  O   O12       1.0  0.2929005805299989  0.604234908067709  0.5153655852349475  1.0000
  O   O13       1.0  0.927542180618355  0.8569377058333325  0.9097712049521121  1.0000
  O   O14       1.0  0.07245781917490784  0.14306229408660415  0.9097712049521121  1.0000
  O   O15       1.0  0.42754218031155045  0.6430622940465726  0.09022879478622994  1.0000
  O   O16       1.0  0.5724578194817125  0.3569377058733642  0.09022879478622994  1.0000
  O   O17       1.0  0.9356138902241943  0.7147705039459593  0.9861388115010591  1.0000
  O   O18       1.0  0.06438610956906868  0.2852294959739774  0.9861388115010591  1.0000
  O   O19       1.0  0.4356138899173896  0.7852294959339458  0.013861188237282905  1.0000
  O   O20       1.0  0.5643861098758733  0.21477050398599098  0.013861188237282905  1.0000
