data_image0
_chemical_formula_structural       H26C22N4O2F4I2
_chemical_formula_sum              "H26 C22 N4 O2 F4 I2"
_cell_length_a       5.028381122025327
_cell_length_b       5.061712484994458
_cell_length_c       23.95562380071326
_cell_angle_alpha    84.98862079230123
_cell_angle_beta     83.3426998840801
_cell_angle_gamma    88.69954120505975

_space_group_name_H-M_alt    "P 1"
_space_group_IT_number       1

loop_
  _space_group_symop_operation_xyz
  'x, y, z'

loop_
  _atom_site_type_symbol
  _atom_site_label
  _atom_site_symmetry_multiplicity
  _atom_site_fract_x
  _atom_site_fract_y
  _atom_site_fract_z
  _atom_site_occupancy
  H   H1        1.0  0.3067843744159784  0.28413576248662464  0.23908665556832828  1.0000
  H   H2        1.0  0.6932156248317174  0.7158642376226642  0.7609133446776063  1.0000
  H   H3        1.0  0.8162415591488396  0.9667788269298458  0.2797797160716977  1.0000
  H   H4        1.0  0.183758440364343  0.033221171374658506  0.7202202837520136  1.0000
  H   H5        1.0  0.5740713179844559  0.8972922662989011  0.19550251234024313  1.0000
  H   H6        1.0  0.42592868147452245  0.10270773398153507  0.8044974874838982  1.0000
  H   H7        1.0  0.7191536657316344  0.5220438009879435  0.1377130482184506  1.0000
  H   H8        1.0  0.28084633351606125  0.47795619912134524  0.862286952027484  1.0000
  H   H9        1.0  0.3106381656690766  0.2730370389639702  0.33024567402438393  1.0000
  H   H10       1.0  0.6893618337899016  0.7269629613164659  0.6697543257997574  1.0000
  H   H11       1.0  0.39285948028032713  0.570303585019003  0.42048839591650355  1.0000
  H   H12       1.0  0.6071405211691087  0.42969641527173125  0.5795116039038715  1.0000
  H   H13       1.0  0.66973467054812  0.63960233778274  0.369892756282874  1.0000
  H   H14       1.0  0.33026532869957576  0.3603976623265487  0.6301072439630606  1.0000
  H   H15       1.0  0.7747414255885685  0.15216001320009287  0.3679890738987443  1.0000
  H   H16       1.0  0.22525857365912744  0.8478399869091959  0.6320109263471901  1.0000
  H   H17       1.0  0.4861433945619602  0.07866903963900017  0.4154117659139497  1.0000
  H   H18       1.0  0.5138566066761929  0.9213309604805866  0.5845882343282187  1.0000
  H   H19       1.0  0.9685125706499247  0.3939250927457204  0.43989614261822996  1.0000
  H   H20       1.0  0.031487428651975236  0.6060749053876363  0.5601038576272749  1.0000
  H   H21       1.0  0.6768520206867764  0.3392906882630047  0.48726626014689456  1.0000
  H   H22       1.0  0.3231479805513769  0.660709311856582  0.5127337400952738  1.0000
  H   H23       1.0  0.04795910449691944  0.9017535326885632  0.44054431105981817  1.0000
  H   H24       1.0  0.9520408947507765  0.09824646742072558  0.5594556891861164  1.0000
  H   H25       1.0  0.7557333411933355  0.8471341099117756  0.4879594533311368  1.0000
  H   H26       1.0  0.2442666582656429  0.15286589036866066  0.5120405464930043  1.0000
  C   C1        1.0  0.14244003157017932  0.42281194704154207  0.23169201603922496  1.0000
  C   C2        1.0  0.8575599676775165  0.5771880530677468  0.7683079842067096  1.0000
  C   C3        1.0  0.07682758000278132  0.6273171881420713  0.2669098011552599  1.0000
  C   C4        1.0  0.923172419456197  0.372682812138365  0.7330901986688813  1.0000
  C   C5        1.0  0.8689990847511891  0.8027356634954381  0.25386717233092043  1.0000
  C   C6        1.0  0.13100091470778905  0.19726433678499827  0.7461328274932206  1.0000
  C   C7        1.0  0.7351272093270029  0.7649155732249694  0.20765204210589405  1.0000
  C   C8        1.0  0.2648727899206929  0.23508442688431955  0.7923479581400404  1.0000
  C   C9        1.0  0.8153763117170181  0.5556641563470114  0.17501446815225183  1.0000
  C   C10       1.0  0.18462368973241763  0.44433584394372266  0.8249855316681233  1.0000
  C   C11       1.0  0.23161669607312052  0.6736699223018259  0.314568643096357  1.0000
  C   C12       1.0  0.7683833033858577  0.3263300779786102  0.6854313567277842  1.0000
  C   C13       1.0  0.516300044807154  0.48983083633675584  0.38455215064507575  1.0000
  C   C14       1.0  0.48369995449474623  0.510169161796601  0.615447849600429  1.0000
  C   C15       1.0  0.6438003509690787  0.2269540821524305  0.40345426073593954  1.0000
  C   C16       1.0  0.3561996502690746  0.7730459179671563  0.5965457395062288  1.0000
  C   C17       1.0  0.8050676238578736  0.2523040752941656  0.45277857066408805  1.0000
  C   C18       1.0  0.19493237560110477  0.7476959249862708  0.5472214291600531  1.0000
  C   C19       1.0  0.9202671470368583  0.9879292873707757  0.47515329230995346  1.0000
  C   C20       1.0  0.07973285221083766  0.0120707127385131  0.5248467079359811  1.0000
  C   C21       1.0  0.4430630537273049  0.9052561936129124  0.025296985298390886  1.0000
  C   C22       1.0  0.5569369477221309  0.09474380667782162  0.9747030145219842  1.0000
  N   N1        1.0  0.015855767038473932  0.38817658882293327  0.18681245314130812  1.0000
  N   N2        1.0  0.9841442324205043  0.611823411457503  0.8131875466828331  1.0000
  N   N3        1.0  0.3510976416507854  0.46111431261782837  0.3394629279631973  1.0000
  N   N4        1.0  0.6489023598528545  0.5388856856969736  0.660537071856748  1.0000
  O   O1        1.0  0.25133455777885255  0.902281693579989  0.3300616166736187  1.0000
  O   O2        1.0  0.74866544173433  0.09771830472451508  0.6699383831500927  1.0000
  F   F1        1.0  0.6470609249158518  0.7471693293307772  0.04293468572410761  1.0000
  F   F2        1.0  0.352939076533584  0.2528306709599568  0.9570653140962675  1.0000
  F   F3        1.0  0.25761425777958785  0.7471857198352869  0.008215804605175138  1.0000
  F   F4        1.0  0.742385743669848  0.25281428045544724  0.9917841952151999  1.0000
  I   I1        1.0  0.25448892742211343  0.11468716774994833  0.09645057329754352  1.0000
  I   I2        1.0  0.7455110738160398  0.8853128323696383  0.9035494269446248  1.0000
