data_image0
_chemical_formula_structural       H30C32N4O10Cl2
_chemical_formula_sum              "H30 C32 N4 O10 Cl2"
_cell_length_a       7.107930563547537
_cell_length_b       10.422260626621666
_cell_length_c       11.047600547969443
_cell_angle_alpha    79.3011797659974
_cell_angle_beta     80.51659851277239
_cell_angle_gamma    72.04488673014147

_space_group_name_H-M_alt    "P 1"
_space_group_IT_number       1

loop_
  _space_group_symop_operation_xyz
  'x, y, z'

loop_
  _atom_site_type_symbol
  _atom_site_label
  _atom_site_symmetry_multiplicity
  _atom_site_fract_x
  _atom_site_fract_y
  _atom_site_fract_z
  _atom_site_occupancy
  H   H1        1.0  0.7632325906971162  0.6650741461471337  0.13072800325747155  1.0000
  H   H2        1.0  0.23676740773510327  0.3349258545312458  0.8692719971164997  1.0000
  H   H3        1.0  0.8370118317697496  0.03739012890606918  0.4285824851534886  1.0000
  H   H4        1.0  0.16298816806837696  0.9626098717733884  0.5714175152223595  1.0000
  H   H5        1.0  0.10846330854058117  0.10644841258419005  0.05190952049496062  1.0000
  H   H6        1.0  0.8915366917558382  0.8935515870870643  0.9480904798783688  1.0000
  H   H7        1.0  0.9880517782350918  0.35408071150086773  0.05795872227815515  1.0000
  H   H8        1.0  0.011948222234195111  0.6459192883196085  0.942041277167836  1.0000
  H   H9        1.0  0.6179558339162327  0.07404852522564041  0.03574720384918717  1.0000
  H   H10       1.0  0.38204416655305434  0.9259514745948361  0.964252795596804  1.0000
  H   H11       1.0  0.41102892164925386  0.9618219248404623  0.41819274788715544  1.0000
  H   H12       1.0  0.5889710786471655  0.0381780748307922  0.581807252486174  1.0000
  H   H13       1.0  0.47606827452322786  0.31461762730204246  0.057045862956433324  1.0000
  H   H14       1.0  0.5239317259460589  0.6853823725184339  0.9429541364895577  1.0000
  H   H15       1.0  0.5805123440436702  0.7856727185030671  0.3000594764475412  1.0000
  H   H16       1.0  0.419487656252749  0.21432728116818733  0.6999405239257883  1.0000
  H   H17       1.0  0.268468203860907  0.20325445186841096  0.4444810370419064  1.0000
  H   H18       1.0  0.7315317964355122  0.7967455478028433  0.5555189633314231  1.0000
  H   H19       1.0  0.057660947062760586  0.4068483895464677  0.41534117435693657  1.0000
  H   H20       1.0  0.9423390532336589  0.5931516101247867  0.584658826016393  1.0000
  H   H21       1.0  0.10590357305213217  0.5669177152827  0.36632791013999105  1.0000
  H   H22       1.0  0.8940964269588623  0.43308228554597933  0.6336720893085187  1.0000
  H   H23       1.0  0.27702407443412963  0.43347664120279866  0.45226978670814727  1.0000
  H   H24       1.0  0.7229759258622896  0.5665233584684558  0.5477302136651823  1.0000
  H   H25       1.0  0.4566679377890018  0.510765173579743  0.12538510855784865  1.0000
  H   H26       1.0  0.5433320626802853  0.4892348262407332  0.8746148908881424  1.0000
  H   H27       1.0  0.22883297106953576  0.6192780627695564  0.18640409145684567  1.0000
  H   H28       1.0  0.7711670292268837  0.380721936901698  0.8135959089164837  1.0000
  H   H29       1.0  0.2270446299784463  0.5097193686430128  0.08089396080615181  1.0000
  H   H30       1.0  0.7729553704908406  0.49028063117746357  0.9191060386398393  1.0000
  C   C1        1.0  0.8689670719933563  0.10773042849310181  0.3477618694430641  1.0000
  C   C2        1.0  0.13103292830306307  0.8922695711781525  0.6522381309302654  1.0000
  C   C3        1.0  0.021918547165121698  0.1450573280474378  0.1349115699528555  1.0000
  C   C4        1.0  0.9780814531312976  0.8549426716238164  0.8650884304204739  1.0000
  C   C5        1.0  0.8028909750902276  0.24790474940615245  0.35020100277895744  1.0000
  C   C6        1.0  0.19710902520619172  0.7520952502651019  0.649798997594372  1.0000
  C   C7        1.0  0.9538247898496905  0.2843534869959462  0.13886435170149738  1.0000
  C   C8        1.0  0.046175209213689186  0.7156465128234523  0.8611356477426169  1.0000
  C   C9        1.0  0.9759188790887413  0.05884416869367785  0.24033093010812892  1.0000
  C   C10       1.0  0.024081119801770867  0.9411558309764985  0.7596690702633238  1.0000
  C   C11       1.0  0.7713734444107296  0.4915443411310568  0.23969013205468448  1.0000
  C   C12       1.0  0.22862655605855728  0.5084556586894196  0.7603098673913066  1.0000
  C   C13       1.0  0.8425328229502788  0.3394627111660819  0.24435602823428312  1.0000
  C   C14       1.0  0.15746717548194097  0.6605372895122975  0.7556439721396881  1.0000
  C   C15       1.0  0.5412155366773242  0.10311513147084357  0.12468847712418592  1.0000
  C   C16       1.0  0.45878446361909503  0.8968848682004109  0.8753115232491436  1.0000
  C   C17       1.0  0.359637342355096  0.2802567849898522  0.2524547102332871  1.0000
  C   C18       1.0  0.6403626565354162  0.7197432146803242  0.7475452901381656  1.0000
  C   C19       1.0  0.42278264395966314  0.041131708841213546  0.34004972966629154  1.0000
  C   C20       1.0  0.5772173563367562  0.9588682908300408  0.6599502707070379  1.0000
  C   C21       1.0  0.46203634082967476  0.23865778181911823  0.13722435596682467  1.0000
  C   C22       1.0  0.5379636596396122  0.761342218001358  0.8627756434791665  1.0000
  C   C23       1.0  0.6049596268392385  0.8587319164307822  0.21696742535266586  1.0000
  C   C24       1.0  0.39504037363004857  0.14126808338969413  0.7830325740933252  1.0000
  C   C25       1.0  0.5233718397126758  0.0004382354835699039  0.22576849863181483  1.0000
  C   C26       1.0  0.47662816075661135  0.9995617643369065  0.7742315008141761  1.0000
  C   C27       1.0  0.3431238015914839  0.17644905079110276  0.3546031524710076  1.0000
  C   C28       1.0  0.6568761988778031  0.8235509490293736  0.6453968469749835  1.0000
  C   C29       1.0  0.17548354286232992  0.4568082563853362  0.38101703119295155  1.0000
  C   C30       1.0  0.8245164571486646  0.5431917444433431  0.6189829682555582  1.0000
  C   C31       1.0  0.29934459185270745  0.5185856953979016  0.15843410542877503  1.0000
  C   C32       1.0  0.7006554079854194  0.4814143052815559  0.841565894947073  1.0000
  N   N1        1.0  0.04066423200868985  0.9107248072228711  0.2396237107715795  1.0000
  N   N2        1.0  0.9593357668818223  0.08927519244730515  0.7603762895998732  1.0000
  N   N3        1.0  0.28034994972743166  0.4141207283519088  0.26360851293900917  1.0000
  N   N4        1.0  0.7196500501106953  0.5858792723275486  0.736391487436839  1.0000
  O   O1        1.0  0.8133125902170076  0.5580124314416461  0.12820191015833995  1.0000
  O   O2        1.0  0.18668741007941167  0.4419875682296083  0.8717980902149896  1.0000
  O   O3        1.0  0.983372161020849  0.8373788976418857  0.33133417617656036  1.0000
  O   O4        1.0  0.01662783899014557  0.16262110318679365  0.6686658232719493  1.0000
  O   O5        1.0  0.6824658908163291  0.5491512374817451  0.32921740925075643  1.0000
  O   O6        1.0  0.31753410965295775  0.4508487623387312  0.6707825901952347  1.0000
  O   O7        1.0  0.14833611288235235  0.8665380115165925  0.14709435173090013  1.0000
  O   O8        1.0  0.8516638871286419  0.13346198931208686  0.8529056477176096  1.0000
  O   O9        1.0  0.7032120239118452  0.8116337017460215  0.12093766533814135  1.0000
  O   O10       1.0  0.29678797655744177  0.18836629807445476  0.8790623341078498  1.0000
  Cl  Cl1       1.0  0.6703139377007333  0.29992790940288727  0.48619758210808  1.0000
  Cl  Cl2       1.0  0.329686062595686  0.7000720902683671  0.5138024182652494  1.0000
