data_image0
_chemical_formula_structural       H52C84N8O8I4
_chemical_formula_sum              "H52 C84 N8 O8 I4"
_cell_length_a       32.30757015653818
_cell_length_b       4.00080153498648
_cell_length_c       13.376453570689026
_cell_angle_alpha    90.0
_cell_angle_beta     90.0
_cell_angle_gamma    90.0

_space_group_name_H-M_alt    "P 1"
_space_group_IT_number       1

loop_
  _space_group_symop_operation_xyz
  'x, y, z'

loop_
  _atom_site_type_symbol
  _atom_site_label
  _atom_site_symmetry_multiplicity
  _atom_site_fract_x
  _atom_site_fract_y
  _atom_site_fract_z
  _atom_site_occupancy
  H   H1        1.0  0.5608073424343656  0.5529327662606677  0.15990408060675698  1.0000
  H   H2        1.0  0.43919265767278626  0.44706723249296204  0.6599040802072107  1.0000
  H   H3        1.0  0.06080734238078968  0.44706723249296204  0.15990408060675698  1.0000
  H   H4        1.0  0.9391926577263622  0.5529327662606677  0.6599040802072107  1.0000
  H   H5        1.0  0.5149569917944794  0.4452578900557785  0.3069630084163253  1.0000
  H   H6        1.0  0.4850430083126725  0.5547421111973504  0.806963008016779  1.0000
  H   H7        1.0  0.014956991740903439  0.5547421111973504  0.3069630084163253  1.0000
  H   H8        1.0  0.9850430083662485  0.4452578900557785  0.806963008016779  1.0000
  H   H9        1.0  0.45051001791462436  0.11148582755218006  0.2856017785140948  1.0000
  H   H10       1.0  0.5494899818830026  0.8885141737009489  0.7856017788621308  1.0000
  H   H11       1.0  0.9505100179682003  0.8885141737009489  0.2856017785140948  1.0000
  H   H12       1.0  0.04948998213895159  0.11148582755218006  0.7856017788621308  1.0000
  H   H13       1.0  0.4317840129235753  0.8884067302308739  0.11810406784214803  1.0000
  H   H14       1.0  0.5682159868740515  0.11159327102225498  0.6181040681901839  1.0000
  H   H15       1.0  0.9317840129771513  0.11159327102225498  0.11810406784214803  1.0000
  H   H16       1.0  0.06821598682047561  0.8884067302308739  0.6181040681901839  1.0000
  H   H17       1.0  0.47760719531788487  0.00643066639897371  0.9707035561691977  1.0000
  H   H18       1.0  0.522392804479742  0.993569332354656  0.4707035558211617  1.0000
  H   H19       1.0  0.9776071953714608  0.993569332354656  0.9707035561691977  1.0000
  H   H20       1.0  0.022392804426166098  0.00643066639897371  0.4707035558211617  1.0000
  H   H21       1.0  0.7477735890673572  0.430017309020507  0.6356266648008135  1.0000
  H   H22       1.0  0.2522264110397946  0.5699826922326219  0.13562666520035996  1.0000
  H   H23       1.0  0.24777358901378135  0.5699826922326219  0.6356266648008135  1.0000
  H   H24       1.0  0.7522264107838456  0.430017309020507  0.13562666520035996  1.0000
  H   H25       1.0  0.8091608416645211  0.09036328016736318  0.6006882756732141  1.0000
  H   H26       1.0  0.19083915844263077  0.9096367185862665  0.10068827607276053  1.0000
  H   H27       1.0  0.30916084161094515  0.9096367185862665  0.6006882756732141  1.0000
  H   H28       1.0  0.6908391581866817  0.09036328016736318  0.10068827607276053  1.0000
  H   H29       1.0  0.8242402223681612  0.8862356877724958  0.4283413237836896  1.0000
  H   H30       1.0  0.17575977742946572  0.1137643134806331  0.9283413241317255  1.0000
  H   H31       1.0  0.3242402223145852  0.1137643134806331  0.4283413237836896  1.0000
  H   H32       1.0  0.6757597774830417  0.8862356877724958  0.9283413241317255  1.0000
  H   H33       1.0  0.776930368900562  0.0345498692677509  0.2873268246840724  1.0000
  H   H34       1.0  0.22306963089706486  0.9654501294858788  0.7873268250321084  1.0000
  H   H35       1.0  0.27693036884698613  0.9654501294858788  0.2873268246840724  1.0000
  H   H36       1.0  0.7230696309506408  0.0345498692677509  0.7873268250321084  1.0000
  H   H37       1.0  0.6595114549550237  0.6203838501597624  0.16581364472121066  1.0000
  H   H38       1.0  0.3404885451521282  0.3796161510933665  0.6658136450692466  1.0000
  H   H39       1.0  0.15951145490144777  0.3796161510933665  0.16581364472121066  1.0000
  H   H40       1.0  0.8404885448961791  0.6203838501597624  0.6658136450692466  1.0000
  H   H41       1.0  0.5988215810183668  0.9842912090397675  0.19753743741091545  1.0000
  H   H42       1.0  0.40117841908878504  0.01570878971386227  0.6975374377589514  1.0000
  H   H43       1.0  0.09882158096479089  0.01570878971386227  0.19753743741091545  1.0000
  H   H44       1.0  0.9011784191423611  0.9842912090397675  0.6975374377589514  1.0000
  H   H45       1.0  0.5816144695795793  0.16473481981960578  0.3709341869860366  1.0000
  H   H46       1.0  0.4183855305275726  0.835265178934024  0.8709341873340725  1.0000
  H   H47       1.0  0.08161446952600333  0.835265178934024  0.3709341869860366  1.0000
  H   H48       1.0  0.9183855305811486  0.16473481981960578  0.8709341873340725  1.0000
  H   H49       1.0  0.6258178894926361  0.9904132897742928  0.5139253535080219  1.0000
  H   H50       1.0  0.37418211061451584  0.009586711478836106  0.013925353159985967  1.0000
  H   H51       1.0  0.12581788943906014  0.009586711478836106  0.5139253535080219  1.0000
  H   H52       1.0  0.8741821106680917  0.9904132897742928  0.013925353159985967  1.0000
  C   C1        1.0  0.5214093331185085  0.2805227952912672  0.05904263830665829  1.0000
  C   C2        1.0  0.47859066698864344  0.7194772034623625  0.5590426386546943  1.0000
  C   C3        1.0  0.02140933306493252  0.7194772034623625  0.05904263830665829  1.0000
  C   C4        1.0  0.9785906670422193  0.2805227952912672  0.5590426386546943  1.0000
  C   C5        1.0  0.532822073482871  0.40448420543946545  0.1522590228596061  1.0000
  C   C6        1.0  0.46717792631475585  0.5955157958136635  0.6522590232076421  1.0000
  C   C7        1.0  0.03282207342929512  0.5955157958136635  0.1522590228596061  1.0000
  C   C8        1.0  0.9671779263683318  0.40448420543946545  0.6522590232076421  1.0000
  C   C9        1.0  0.5070001807822475  0.3428357637851774  0.23381806870345928  1.0000
  C   C10       1.0  0.49299981932490444  0.6571642349684524  0.7338180690514953  1.0000
  C   C11       1.0  0.007000180728671467  0.6571642349684524  0.23381806870345928  1.0000
  C   C12       1.0  0.9929998193784805  0.3428357637851774  0.7338180690514953  1.0000
  C   C13       1.0  0.4705595696717352  0.15914250042951747  0.2217620690210492  1.0000
  C   C14       1.0  0.5294404301258918  0.8408574983241123  0.7217620693690852  1.0000
  C   C15       1.0  0.9705595697253111  0.8408574983241123  0.2217620690210492  1.0000
  C   C16       1.0  0.029440430381840806  0.15914250042951747  0.7217620693690852  1.0000
  C   C17       1.0  0.4597372095157133  0.03766728458838917  0.12740247039277214  1.0000
  C   C18       1.0  0.5402627902819137  0.9623327166647397  0.627402470740808  1.0000
  C   C19       1.0  0.9597372095692892  0.9623327166647397  0.12740247039277214  1.0000
  C   C20       1.0  0.04026279053786268  0.03766728458838917  0.627402470740808  1.0000
  C   C21       1.0  0.48514474205445735  0.09930630313091565  0.04504828629020244  1.0000
  C   C22       1.0  0.5148552580526946  0.9006936956227141  0.5450482858906561  1.0000
  C   C23       1.0  0.9851447421080333  0.9006936956227141  0.04504828629020244  1.0000
  C   C24       1.0  0.014855257999118625  0.09930630313091565  0.5450482858906561  1.0000
  C   C25       1.0  0.5848989586168498  0.23662518415905356  0.9690694137648238  1.0000
  C   C26       1.0  0.415101041490302  0.7633748145945761  0.46906941341678793  1.0000
  C   C27       1.0  0.08489895856327391  0.7633748145945761  0.9690694137648238  1.0000
  C   C28       1.0  0.9151010415438781  0.23662518415905356  0.46906941341678793  1.0000
  C   C29       1.0  0.6047770914163242  0.3469222124272881  0.8799555642904001  1.0000
  C   C30       1.0  0.39522290838130275  0.6530777888258408  0.3799555639423642  1.0000
  C   C31       1.0  0.10477709136274825  0.6530777888258408  0.8799555642904001  1.0000
  C   C32       1.0  0.8952229084348787  0.3469222124272881  0.3799555639423642  1.0000
  C   C33       1.0  0.6237277601615593  0.42981564193131394  0.8049719361785481  1.0000
  C   C34       1.0  0.37627223994559256  0.5701843568223158  0.3049719365780945  1.0000
  C   C35       1.0  0.12372776010798339  0.5701843568223158  0.8049719361785481  1.0000
  C   C36       1.0  0.8762722399991685  0.42981564193131394  0.3049719365780945  1.0000
  C   C37       1.0  0.7263842420303703  0.43355248562857335  0.4808613745047129  1.0000
  C   C38       1.0  0.27361575807678157  0.5664475156245555  0.9808613741051665  1.0000
  C   C39       1.0  0.22638424197679435  0.5664475156245555  0.4808613745047129  1.0000
  C   C40       1.0  0.7736157581303575  0.43355248562857335  0.9808613741051665  1.0000
  C   C41       1.0  0.7537487914445293  0.343601202903619  0.5597557454546088  1.0000
  C   C42       1.0  0.2462512086626225  0.6563987983495099  0.05975574585415518  1.0000
  C   C43       1.0  0.2537487913909534  0.6563987983495099  0.5597557454546088  1.0000
  C   C44       1.0  0.7462512087161984  0.343601202903619  0.05975574585415518  1.0000
  C   C45       1.0  0.7882157914264097  0.15425167047234836  0.5397988317188966  1.0000
  C   C46       1.0  0.21178420868074216  0.8457483307807806  0.039798832118443  1.0000
  C   C47       1.0  0.28821579137283376  0.8457483307807806  0.5397988317188966  1.0000
  C   C48       1.0  0.7117842087343181  0.15425167047234836  0.039798832118443  1.0000
  C   C49       1.0  0.7968782110588365  0.03955168948427599  0.4412029839457664  1.0000
  C   C50       1.0  0.20312178904831543  0.9604483117688529  0.9412029842938023  1.0000
  C   C51       1.0  0.2968782110052605  0.9604483117688529  0.4412029839457664  1.0000
  C   C52       1.0  0.7031217891018914  0.03955168948427599  0.9412029842938023  1.0000
  C   C53       1.0  0.7711101493950742  0.12056147643965298  0.36327539091885724  1.0000
  C   C54       1.0  0.22888985071207768  0.879438524813476  0.8632753905193108  1.0000
  C   C55       1.0  0.2711101493414983  0.879438524813476  0.36327539091885724  1.0000
  C   C56       1.0  0.7288898507656536  0.12056147643965298  0.8632753905193108  1.0000
  C   C57       1.0  0.735572966176495  0.3239882705164929  0.379938799409163  1.0000
  C   C58       1.0  0.2644270339306569  0.6760117307366359  0.8799387990096166  1.0000
  C   C59       1.0  0.23557296612291906  0.6760117307366359  0.379938799409163  1.0000
  C   C60       1.0  0.7644270339842328  0.3239882705164929  0.8799387990096166  1.0000
  C   C61       1.0  0.6782173931321075  0.6013923482480695  0.3211024295267488  1.0000
  C   C62       1.0  0.3217826069750444  0.3986076505055603  0.8211024291272024  1.0000
  C   C63       1.0  0.17821739307853154  0.3986076505055603  0.3211024295267488  1.0000
  C   C64       1.0  0.8217826070286204  0.6013923482480695  0.8211024291272024  1.0000
  C   C65       1.0  0.651891024547936  0.7028490304779647  0.2411980105900228  1.0000
  C   C66       1.0  0.3481089755592158  0.29715097077516434  0.7411980101904765  1.0000
  C   C67       1.0  0.15189102449436015  0.29715097077516434  0.2411980105900228  1.0000
  C   C68       1.0  0.8481089756127917  0.7028490304779647  0.7411980101904765  1.0000
  C   C69       1.0  0.6179643075373664  0.9002350650248316  0.2595929310896665  1.0000
  C   C70       1.0  0.3820356922602606  0.09976493372879812  0.7595929306901201  1.0000
  C   C71       1.0  0.11796430779331536  0.09976493372879812  0.2595929310896665  1.0000
  C   C72       1.0  0.8820356923138366  0.9002350650248316  0.7595929306901201  1.0000
  C   C73       1.0  0.6082741485906205  0.0026655883594175933  0.35866690559244163  1.0000
  C   C74       1.0  0.3917258512070065  0.9973344128937113  0.8586669059404776  1.0000
  C   C75       1.0  0.10827414884656944  0.9973344128937113  0.35866690559244163  1.0000
  C   C76       1.0  0.8917258512605825  0.0026655883594175933  0.8586669059404776  1.0000
  C   C77       1.0  0.6326198027573985  0.9091052475844171  0.4379933731342672  1.0000
  C   C78       1.0  0.3673801973497534  0.09089475116921263  0.9379933727347209  1.0000
  C   C79       1.0  0.13261980270382256  0.09089475116921263  0.4379933731342672  1.0000
  C   C80       1.0  0.8673801974033293  0.9091052475844171  0.9379933727347209  1.0000
  C   C81       1.0  0.6682917126044091  0.7076596515076992  0.4217116300811433  1.0000
  C   C82       1.0  0.3317082875027428  0.29234034974542983  0.921711629681597  1.0000
  C   C83       1.0  0.16829171255083317  0.29234034974542983  0.4217116300811433  1.0000
  C   C84       1.0  0.8317082872467937  0.7076596515076992  0.921711629681597  1.0000
  N   N1        1.0  0.6924685004660591  0.6194588405166603  0.49946681642433677  1.0000
  N   N2        1.0  0.3075314996410927  0.38054116073646854  0.9994668167723727  1.0000
  N   N3        1.0  0.19246850041248323  0.38054116073646854  0.49946681642433677  1.0000
  N   N4        1.0  0.8075314996946686  0.6194588405166603  0.9994668167723727  1.0000
  N   N5        1.0  0.7113467313897974  0.4080035952109572  0.3021598137832735  1.0000
  N   N6        1.0  0.2886532684078295  0.5919964035426726  0.8021598141313094  1.0000
  N   N7        1.0  0.2113467313362214  0.5919964035426726  0.3021598137832735  1.0000
  N   N8        1.0  0.7886532684614056  0.4080035952109572  0.8021598141313094  1.0000
  O   O1        1.0  0.5450388619348533  0.3551134185427174  0.9734497601466475  1.0000
  O   O2        1.0  0.4549611381722986  0.6448865802109124  0.47344975979861165  1.0000
  O   O3        1.0  0.04503886188127731  0.6448865802109124  0.9734497601466475  1.0000
  O   O4        1.0  0.9549611382258746  0.3551134185427174  0.47344975979861165  1.0000
  O   O5        1.0  0.6009485091552418  0.05605299039177604  0.031987337132285944  1.0000
  O   O6        1.0  0.39905149095191017  0.9439470108613528  0.5319873374803219  1.0000
  O   O7        1.0  0.10094850910166576  0.9439470108613528  0.031987337132285944  1.0000
  O   O8        1.0  0.8990514910054861  0.05605299039177604  0.5319873374803219  1.0000
  I   I1        1.0  0.6546290778763477  0.5486879543519817  0.6795831931057755  1.0000
  I   I2        1.0  0.3453709222308042  0.4513120469011472  0.17958319350532181  1.0000
  I   I3        1.0  0.15462907782277174  0.4513120469011472  0.6795831931057755  1.0000
  I   I4        1.0  0.8453709219748552  0.5486879543519817  0.17958319350532181  1.0000
