data_image0
_chemical_formula_structural       H16C24N2O2Cl6
_chemical_formula_sum              "H16 C24 N2 O2 Cl6"
_cell_length_a       3.73223916463321
_cell_length_b       11.50376997509517
_cell_length_c       13.734231053061553
_cell_angle_alpha    94.17548189313239
_cell_angle_beta     93.6537720872316
_cell_angle_gamma    95.80145096761787

_space_group_name_H-M_alt    "P 1"
_space_group_IT_number       1

loop_
  _space_group_symop_operation_xyz
  'x, y, z'

loop_
  _atom_site_type_symbol
  _atom_site_label
  _atom_site_symmetry_multiplicity
  _atom_site_fract_x
  _atom_site_fract_y
  _atom_site_fract_z
  _atom_site_occupancy
  H   H1        1.0  0.19465292731950956  0.7154964046008485  0.6461836710944688  1.0000
  H   H2        1.0  0.8053470745689735  0.2845035953348067  0.35381632896768817  1.0000
  H   H3        1.0  0.4071602041071634  0.6152760780241492  0.023539545281804252  1.0000
  H   H4        1.0  0.5928397951005396  0.3847239219044292  0.9764604547831953  1.0000
  H   H5        1.0  0.7324226246706185  0.9555842603709312  0.9251399816105434  1.0000
  H   H6        1.0  0.2675773745370847  0.04441573955764692  0.07486001845445608  1.0000
  H   H7        1.0  0.05321551904431535  0.9013547108676216  0.5426851035556981  1.0000
  H   H8        1.0  0.9467844801633878  0.09864528906095686  0.4573148965093015  1.0000
  H   H9        1.0  0.046252202551316124  0.9242827027843169  0.36217396141190655  1.0000
  H   H10       1.0  0.953747796656387  0.07571729714426133  0.637826038653093  1.0000
  H   H11       1.0  0.24327971457211456  0.7616795611199225  0.25262075955276964  1.0000
  H   H12       1.0  0.7567202873163684  0.23832043881573262  0.7473792405093873  1.0000
  H   H13       1.0  0.43009157098935347  0.5844525581079313  0.3262048228370189  1.0000
  H   H14       1.0  0.5699084308991295  0.4155474418277239  0.6737951772251382  1.0000
  H   H15       1.0  0.46971036413754763  0.5603255304720108  0.6030073960172301  1.0000
  H   H16       1.0  0.5302896350701555  0.43967446945656763  0.3969926040477695  1.0000
  C   C1        1.0  0.4504955345417375  0.8273644666061707  0.8177411001903463  1.0000
  C   C2        1.0  0.5495044646659655  0.17263553332240764  0.1822588998746533  1.0000
  C   C3        1.0  0.28004965159395756  0.7126052993461367  0.7942466780687306  1.0000
  C   C4        1.0  0.7199503502945256  0.2873947005895185  0.20575332199342644  1.0000
  C   C5        1.0  0.2718917863311431  0.6384572437642979  0.8720508521815562  1.0000
  C   C6        1.0  0.7281082155573401  0.36154275617135734  0.12794914788060088  1.0000
  C   C7        1.0  0.41832987261600424  0.6754976679213817  0.9661903905645851  1.0000
  C   C8        1.0  0.5816701265916988  0.32450233200719664  0.033809609500414325  1.0000
  C   C9        1.0  0.5822538423793385  0.7898237244028377  0.9849208726088119  1.0000
  C   C10       1.0  0.41774615950914445  0.21017627553281762  0.015079127453345104  1.0000
  C   C11       1.0  0.6016193362631715  0.8665612825105453  0.9112990181633546  1.0000
  C   C12       1.0  0.3983806629445316  0.13343871741803293  0.08870098190164492  1.0000
  C   C13       1.0  0.3461599535168321  0.6496734210455949  0.4742783536720357  1.0000
  C   C14       1.0  0.653840045690871  0.35032657888298346  0.5257216463929639  1.0000
  C   C15       1.0  0.1387339006691583  0.8335422640604419  0.4922372702660879  1.0000
  C   C16       1.0  0.8612660985385447  0.1664577358681364  0.5077627297989117  1.0000
  C   C17       1.0  0.1340868050791091  0.8460297901155035  0.3922081585463392  1.0000
  C   C18       1.0  0.8659131941285939  0.15397020981307474  0.6077918415186604  1.0000
  C   C19       1.0  0.2404019371305213  0.7549697196124094  0.3313234503310586  1.0000
  C   C20       1.0  0.7595980620771817  0.24503028031616883  0.6686765497339411  1.0000
  C   C21       1.0  0.34560781243616306  0.6561199231330169  0.37233975151815857  1.0000
  C   C22       1.0  0.65439218677154  0.34388007679556143  0.6276602485468411  1.0000
  C   C23       1.0  0.4575926904928494  0.5498617289399134  0.5233229625492926  1.0000
  C   C24       1.0  0.5424073087148538  0.450138270988665  0.47667703751570695  1.0000
  N   N1        1.0  0.2428539418612042  0.738755451731195  0.5327095897691914  1.0000
  N   N2        1.0  0.7571460573464988  0.26124454819738324  0.46729041029580815  1.0000
  O   O1        1.0  0.12550746517350894  0.6708361282540044  0.7066749425022659  1.0000
  O   O2        1.0  0.8744925367149742  0.3291638716816508  0.2933250575598911  1.0000
  Cl  Cl1       1.0  0.47529179339563565  0.9239775540746314  0.7269943133868493  1.0000
  Cl  Cl2       1.0  0.524708206061764  0.07602244672767584  0.2730056866781975  1.0000
  Cl  Cl3       1.0  0.07917684272472081  0.49535851689937543  0.8476890718497072  1.0000
  Cl  Cl4       1.0  0.9208231564829823  0.504641483029203  0.15231092821529238  1.0000
  Cl  Cl5       1.0  0.7646140191371551  0.8376638806235013  0.10221351542723711  1.0000
  Cl  Cl6       1.0  0.23538598007054795  0.1623361193050771  0.8977864846377624  1.0000
