data_image0
_chemical_formula_structural       H80C136N20O4I4
_chemical_formula_sum              "H80 C136 N20 O4 I4"
_cell_length_a       3.818013219915294
_cell_length_b       44.354359776010526
_cell_length_c       15.259159730582681
_cell_angle_alpha    90.0
_cell_angle_beta     94.78710211144629
_cell_angle_gamma    90.0

_space_group_name_H-M_alt    "P 1"
_space_group_IT_number       1

loop_
  _space_group_symop_operation_xyz
  'x, y, z'

loop_
  _atom_site_type_symbol
  _atom_site_label
  _atom_site_symmetry_multiplicity
  _atom_site_fract_x
  _atom_site_fract_y
  _atom_site_fract_z
  _atom_site_occupancy
  H   H1        1.0  0.09591168711419097  0.320748568615223  0.807347851367824  1.0000
  H   H2        1.0  0.4040883148812848  0.8207485686601957  0.6926521488635877  1.0000
  H   H3        1.0  0.9040883152892518  0.6792514314747224  0.1926521488832662  1.0000
  H   H4        1.0  0.5959116849021967  0.1792514314297497  0.3073478513850557  1.0000
  H   H5        1.0  0.38792690680832054  0.304874709460101  0.5450247963494338  1.0000
  H   H6        1.0  0.11207309256719407  0.8048747095050738  0.9549752038795312  1.0000
  H   H7        1.0  0.6120730929751609  0.6951252906298445  0.45497520389920965  1.0000
  H   H8        1.0  0.8879269072162874  0.1951252905848717  0.045024796369112295  1.0000
  H   H9        1.0  0.2675875593725507  0.2503761926918037  0.560191437310802  1.0000
  H   H10       1.0  0.2324124397933667  0.7503761927367765  0.9398085622605294  1.0000
  H   H11       1.0  0.7324124402013337  0.7496238071726847  0.43980856228020787  1.0000
  H   H12       1.0  0.7675875597805176  0.24962380735316902  0.06019143733048046  1.0000
  H   H13       1.0  0.07155838643632324  0.23029557052753738  0.7016523395950246  1.0000
  H   H14       1.0  0.42844161555915256  0.73029557057251  0.7983476606363873  1.0000
  H   H15       1.0  0.9284416133471582  0.769704429336951  0.29834766065361895  1.0000
  H   H16       1.0  0.5715583868442902  0.26970442929197835  0.20165233961470297  1.0000
  H   H17       1.0  0.8979836499567565  0.5741126035545362  0.929793638707431  1.0000
  H   H18       1.0  0.6020163510284464  0.0741126035095635  0.5702063616667576  1.0000
  H   H19       1.0  0.10201634982672501  0.4258873965354092  0.07020636154121249  1.0000
  H   H20       1.0  0.39798365137499636  0.9258873965803819  0.42979363858433267  1.0000
  H   H21       1.0  0.5374236909844156  0.47251431664977767  0.8122920805642347  1.0000
  H   H22       1.0  0.962576307380826  0.9725143166947503  0.6877079198075071  1.0000
  H   H23       1.0  0.46257630879906586  0.5274856834401678  0.18770791968440872  1.0000
  H   H24       1.0  0.037423692402655494  0.02748568339519505  0.3122920804411364  1.0000
  H   H25       1.0  0.5578992722099458  0.5697253669675875  0.7872262319308119  1.0000
  H   H26       1.0  0.9421007285656597  0.06972536692261479  0.7127737677857431  1.0000
  H   H27       1.0  0.44210072736393846  0.4302746331223579  0.2127737676601979  1.0000
  H   H28       1.0  0.05789927121782169  0.9302746329418736  0.28722623246290047  1.0000
  H   H29       1.0  0.37649622513257724  0.5184131209675684  0.726144763491465  1.0000
  H   H30       1.0  0.12350377403334015  0.018413120922595776  0.7738552360798666  1.0000
  H   H31       1.0  0.6235037744413071  0.48158687912237697  0.27385523609954504  1.0000
  H   H32       1.0  0.8764962255405442  0.9815868791673497  0.22614476351114327  1.0000
  H   H33       1.0  0.5505059198242669  0.4415147477924302  0.39185179755464217  1.0000
  H   H34       1.0  0.9494940803671815  0.941514747837403  0.10814820271367978  1.0000
  H   H35       1.0  0.44949407995921453  0.5584852522975152  0.6081482026940013  1.0000
  H   H36       1.0  0.05050592203626122  0.058485252252542495  0.8918517975374105  1.0000
  H   H37       1.0  0.973070629318094  0.46620828672594417  0.7028093856705665  1.0000
  H   H38       1.0  0.5269293690471476  0.9662082867709169  0.7971906147011752  1.0000
  H   H39       1.0  0.0269293704653875  0.5337917131385443  0.297190614578077  1.0000
  H   H40       1.0  0.4730706307363339  0.03379171331902857  0.20280938554746814  1.0000
  H   H41       1.0  0.4400280175431393  0.40606199911245733  0.5143083718408694  1.0000
  H   H42       1.0  0.059971984452336556  0.90606199915743  0.9856916283905425  1.0000
  H   H43       1.0  0.559971982030745  0.5939380007520311  0.4856916277501406  1.0000
  H   H44       1.0  0.940028015331145  0.09393800070705842  0.01430837185810101  1.0000
  H   H45       1.0  0.6498858831245129  0.41804725248291674  0.6668952197565501  1.0000
  H   H46       1.0  0.8501141176510928  0.9180472523024324  0.833104779960005  1.0000
  H   H47       1.0  0.35011411906933265  0.5819527476070286  0.3331047798369066  1.0000
  H   H48       1.0  0.1498858821323887  0.08195274756205596  0.1668952202886385  1.0000
  H   H49       1.0  0.24438677851985255  0.2833722647214931  0.05333089210859288  1.0000
  H   H50       1.0  0.2556132200619076  0.7833722647664658  0.4466691080145055  1.0000
  H   H51       1.0  0.755613221263629  0.7166277353684523  0.9466691081400506  1.0000
  H   H52       1.0  0.744386779721574  0.21662773532347965  0.5533308922341381  1.0000
  H   H53       1.0  0.8847530795624818  0.2932153363429694  0.34334263334013293  1.0000
  H   H54       1.0  0.6152469204193692  0.7932153363879421  0.15665736627055543  1.0000
  H   H55       1.0  0.11524692001140241  0.706784663746976  0.6566573662508771  1.0000
  H   H56       1.0  0.38475307915451495  0.20678466370200332  0.8433426333204544  1.0000
  H   H57       1.0  0.5881921818456254  0.39230089957044295  0.05574657768961906  1.0000
  H   H58       1.0  0.9118078181362259  0.8923008996154156  0.4442534219210692  1.0000
  H   H59       1.0  0.4118078179378562  0.6076991005195025  0.9442534225590244  1.0000
  H   H60       1.0  0.08819218143765835  0.10769910047452977  0.5557465776699406  1.0000
  H   H61       1.0  0.15945392669196998  0.4036672367816199  0.33825649048745127  1.0000
  H   H62       1.0  0.34054607450975144  0.9036672368265926  0.16174350963809392  1.0000
  H   H63       1.0  0.8405460730915115  0.5963327630828685  0.6617435097611922  1.0000
  H   H64       1.0  0.6594539278936914  0.09633276303789581  0.8382564906129965  1.0000
  H   H65       1.0  0.6872216940050133  0.3598922000139798  0.92709691951277  1.0000
  H   H66       1.0  0.8127783069801896  0.8598922000589524  0.5729030808614187  1.0000
  H   H67       1.0  0.3127783057784683  0.6401077998505087  0.0729030807358736  1.0000
  H   H68       1.0  0.18722169542325307  0.14010780003099294  0.42709691938967154  1.0000
  H   H69       1.0  0.520855468580976  0.3054203045294968  0.9271829355551826  1.0000
  H   H70       1.0  0.9791445297842657  0.8054203045744696  0.5728170648165593  1.0000
  H   H71       1.0  0.47914453120250555  0.6945796953349916  0.072817064693461  1.0000
  H   H72       1.0  0.020855469999215833  0.1945796952900189  0.4271829354320842  1.0000
  H   H73       1.0  0.9162757220867255  0.3802680317149438  0.4691049765528238  1.0000
  H   H74       1.0  0.583724278104723  0.8802680317599165  0.030895023715498095  1.0000
  H   H75       1.0  0.08372428031671732  0.6197319683750017  0.5308950236982664  1.0000
  H   H76       1.0  0.4162757216787584  0.11973196833002889  0.9691049765331453  1.0000
  H   H77       1.0  0.7808384029669585  0.3260546837567449  0.4715914389624347  1.0000
  H   H78       1.0  0.7191615970148928  0.8260546838017176  0.028408560648253634  1.0000
  H   H79       1.0  0.2191615966069258  0.6739453163332005  0.5284085606285752  1.0000
  H   H80       1.0  0.28083840517895275  0.1739453162882278  0.9715914389452031  1.0000
  C   C1        1.0  0.13553173400466642  0.30520946031830254  0.7537249659475105  1.0000
  C   C2        1.0  0.3644682677812121  0.8052094601378184  0.7462750336262677  1.0000
  C   C3        1.0  0.864468268189179  0.6947905397716428  0.2462750336459461  1.0000
  C   C4        1.0  0.6355317317926722  0.19479053972667018  0.25372496596474226  1.0000
  C   C5        1.0  0.25326014820735376  0.3160588134017456  0.6753066489614921  1.0000
  C   C6        1.0  0.24673985095856354  0.8160588134467183  0.8246933506098393  1.0000
  C   C7        1.0  0.7467398513665305  0.6839411866881998  0.3246933506295177  1.0000
  C   C8        1.0  0.7532601486153208  0.18394118664322717  0.17530664898117054  1.0000
  C   C9        1.0  0.07352949139290783  0.2742329367716114  0.7629799725641581  1.0000
  C   C10       1.0  0.4264705077730095  0.7742329368165841  0.7370200270071733  1.0000
  C   C11       1.0  0.9264705081809764  0.7257670630928771  0.23702002702685177  1.0000
  C   C12       1.0  0.5735294918008749  0.2257670630479043  0.26297997258383654  1.0000
  C   C13       1.0  0.16323655337221973  0.3874252819064278  0.7861537727966545  1.0000
  C   C14       1.0  0.33676344600329483  0.8874252817259436  0.7138462274323105  1.0000
  C   C15       1.0  0.8367634464112618  0.6125747181835176  0.2138462274519889  1.0000
  C   C16       1.0  0.6632365537801868  0.11257471813854493  0.28615377281633303  1.0000
  C   C17       1.0  0.33671809030092315  0.3485663873421959  0.6642642419372276  1.0000
  C   C18       1.0  0.16328190886499425  0.8485663873871687  0.8357357576341039  1.0000
  C   C19       1.0  0.6632819092729613  0.6514336127477495  0.3357357576537823  1.0000
  C   C20       1.0  0.8367180907088901  0.1514336127027768  0.164264241956906  1.0000
  C   C21       1.0  0.24613269089536832  0.36895275397145927  0.731915364223214  1.0000
  C   C22       1.0  0.2538673084801462  0.8689527540164319  0.768084636005751  1.0000
  C   C23       1.0  0.7538673088881133  0.6310472458930292  0.26808463602542953  1.0000
  C   C24       1.0  0.7461326913033353  0.1310472458480565  0.23191536424289239  1.0000
  C   C25       1.0  0.3002355120641938  0.29602113402843866  0.6060367201167156  1.0000
  C   C26       1.0  0.19976448710172348  0.7960211340734114  0.8939632794546157  1.0000
  C   C27       1.0  0.6997644875096903  0.7039788660615067  0.39396327947429416  1.0000
  C   C28       1.0  0.8002355124721608  0.2039788660165341  0.10603672013639415  1.0000
  C   C29       1.0  0.23344182875231523  0.26540815129445294  0.6151618522915835  1.0000
  C   C30       1.0  0.26655817324316067  0.7654081513394256  0.8848381479398284  1.0000
  C   C31       1.0  0.7665581710311663  0.7345918487954926  0.38483814795705995  1.0000
  C   C32       1.0  0.7334418291602821  0.23459184875051975  0.11516185231126189  1.0000
  C   C33       1.0  0.12276491465004347  0.2542232837300175  0.6935893029336951  1.0000
  C   C34       1.0  0.3772350873454324  0.7542232837749901  0.8064106972977167  1.0000
  C   C35       1.0  0.877235085133438  0.7457767161344709  0.3064106973149483  1.0000
  C   C36       1.0  0.6227649150580105  0.2457767163149552  0.19358930295337357  1.0000
  C   C37       1.0  0.9616415753077583  0.2626900376612311  0.843161805271513  1.0000
  C   C38       1.0  0.5383584230574835  0.7626900377062038  0.6568381951002289  1.0000
  C   C39       1.0  0.03835842447572337  0.7373099624287143  0.15683819497713056  1.0000
  C   C40       1.0  0.46164157672599804  0.2373099623837416  0.3431618051484146  1.0000
  C   C41       1.0  0.8124644307116149  0.4965531625576985  0.9204785479477351  1.0000
  C   C42       1.0  0.687535570273588  0.9965531626026711  0.5795214524264535  1.0000
  C   C43       1.0  0.18753556907186666  0.503446837532247  0.07952145230090833  1.0000
  C   C44       1.0  0.31246442950989345  0.0034468374872742  0.42047854782218996  1.0000
  C   C45       1.0  0.9140979239020983  0.5259963714461814  0.9551297052510128  1.0000
  C   C46       1.0  0.5859020744631434  0.02599637140120866  0.544870295120729  1.0000
  C   C47       1.0  0.0859020758813832  0.47400362864376405  0.044870294997630664  1.0000
  C   C48       1.0  0.4140979253203382  0.9740036286887368  0.4551297051279145  1.0000
  C   C49       1.0  0.817671779744557  0.5520109577422522  0.9042879413350937  1.0000
  C   C50       1.0  0.6823282186206847  0.05201095769727952  0.5957120590366481  1.0000
  C   C51       1.0  0.18232822003892457  0.4479890423476932  0.09571205891354986  1.0000
  C   C52       1.0  0.3176717811627968  0.9479890421672089  0.4042879412119953  1.0000
  C   C53       1.0  0.6157798438391585  0.49473043734177224  0.8372987890972865  1.0000
  C   C54       1.0  0.8842201569364472  0.9947304373867449  0.6627012106192685  1.0000
  C   C55       1.0  0.38422015573472584  0.5052695627481731  0.1627012104937234  1.0000
  C   C56       1.0  0.1157798426374371  0.005269562703200465  0.3372987889717413  1.0000
  C   C57       1.0  0.6286739505570919  0.5492300969515006  0.824085516118383  1.0000
  C   C58       1.0  0.8713260502185138  0.04923009690652787  0.6759144835981721  1.0000
  C   C59       1.0  0.3713260492263896  0.45076990313844484  0.17591448413026042  1.0000
  C   C60       1.0  0.12867394935537052  0.9507699031834175  0.3240855159928379  1.0000
  C   C61       1.0  0.5265377440544953  0.5203774509779663  0.7901321928509486  1.0000
  C   C62       1.0  0.9734622567211104  0.02037745093299361  0.7098678068656065  1.0000
  C   C63       1.0  0.47346225572898626  0.47962254888652206  0.20986780739769495  1.0000
  C   C64       1.0  0.0265377428527739  0.9796225489314949  0.2901321927254034  1.0000
  C   C65       1.0  0.9444797643501802  0.4813121958654992  0.5679953847525675  1.0000
  C   C66       1.0  0.5555202366350226  0.9813121959104719  0.9320046156216212  1.0000
  C   C67       1.0  0.05552023543330128  0.5186878039989892  0.43200461549607605  1.0000
  C   C68       1.0  0.4444797631484589  0.0186878039540165  0.0679953846270223  1.0000
  C   C69       1.0  0.8246546981595552  0.4741029970039942  0.4778083559320053  1.0000
  C   C70       1.0  0.675345301822296  0.974102997048967  0.022191643678683003  1.0000
  C   C71       1.0  0.1753453040342903  0.5258970030859512  0.5221916436614513  1.0000
  C   C72       1.0  0.32465469775158823  0.02589700304097852  0.9778083559123268  1.0000
  C   C73       1.0  0.6411567360514473  0.44652866324793594  0.459916782807426  1.0000
  C   C74       1.0  0.8588432639304039  0.9465286632929086  0.0400832168032623  1.0000
  C   C75       1.0  0.35884326373203423  0.5534713366165526  0.5400832174412176  1.0000
  C   C76       1.0  0.14115673564348039  0.0534713365715798  0.9599167827877475  1.0000
  C   C77       1.0  0.8785364956464412  0.46048143075772013  0.6355720191136661  1.0000
  C   C78       1.0  0.6214635051291645  0.9604814305772358  0.864427980602889  1.0000
  C   C79       1.0  0.12146350392744305  0.5395185693322253  0.3644279804773437  1.0000
  C   C80       1.0  0.3785364944447199  0.03951856928725256  0.13557201898812102  1.0000
  C   C81       1.0  0.5807786733404132  0.427146215742404  0.5271681363136893  1.0000
  C   C82       1.0  0.9192213276447898  0.9271462155619197  0.9728318640604994  1.0000
  C   C83       1.0  0.4192213264430684  0.5728537843475414  0.47283186393495424  1.0000
  C   C84       1.0  0.08077867213869176  0.07285378430256868  0.027168136188144072  1.0000
  C   C85       1.0  0.7012489846906389  0.43412783291744184  0.6155536300155416  1.0000
  C   C86       1.0  0.7987510160849668  0.9341278329624145  0.8844463697010134  1.0000
  C   C87       1.0  0.2987510148832454  0.5658721671725037  0.3844463695754683  1.0000
  C   C88       1.0  0.20124898610887876  0.06587216712753091  0.11555362989244326  1.0000
  C   C89       1.0  0.2658829844269415  0.3248313377255088  0.12841351511881866  1.0000
  C   C90       1.0  0.23411701677477986  0.8248313375450245  0.3715864850067265  1.0000
  C   C91       1.0  0.7341170153565401  0.6751686623644366  0.8715864851298248  1.0000
  C   C92       1.0  0.7658829830087016  0.17516866231946387  0.628413515241917  1.0000
  C   C93       1.0  0.3603857712409207  0.35646495022911834  0.12856525322850576  1.0000
  C   C94       1.0  0.13961422996080067  0.856464950274091  0.3714347468970394  1.0000
  C   C95       1.0  0.6396142285425609  0.6435350498608271  0.8714347470201377  1.0000
  C   C96       1.0  0.8603857698226809  0.1435350498158544  0.6285652533516042  1.0000
  C   C97       1.0  0.08054790100243821  0.32981933802846125  0.2670860408616486  1.0000
  C   C98       1.0  0.4194521001992832  0.8298193380734339  0.23291395926389655  1.0000
  C   C99       1.0  0.9194520985714462  0.6701806618360272  0.7329139587293613  1.0000
  C   C100      1.0  0.5805479022041595  0.1701806620165115  0.7670860409871937  1.0000
  C   C101      1.0  0.32219634001228836  0.30698521856163535  0.05339557421830103  1.0000
  C   C102      1.0  0.17780365856947175  0.8069852183811511  0.4466044259047973  1.0000
  C   C103      1.0  0.6778036597711931  0.6930147815283101  0.9466044260303423  1.0000
  C   C104      1.0  0.8221963410044125  0.19301478148333734  0.5533955736862125  1.0000
  C   C105      1.0  0.1651281916284715  0.361724140783959  0.26610620739823687  1.0000
  C   C106      1.0  0.33487180957324986  0.8617241408289318  0.23389379272730834  1.0000
  C   C107      1.0  0.8348718079454127  0.6382758590805295  0.7338937921927731  1.0000
  C   C108      1.0  0.6651281902102316  0.13827585926101374  0.7661062075213352  1.0000
  C   C109      1.0  0.9423874483050099  0.3172597273653106  0.34295033152970117  1.0000
  C   C110      1.0  0.5576125516768414  0.8172597274102833  0.15704966808098716  1.0000
  C   C111      1.0  0.05761255388883574  0.6827402724991778  0.6570496680637555  1.0000
  C   C112      1.0  0.4423874478970429  0.18274027267966209  0.8429503315100227  1.0000
  C   C113      1.0  0.5140016341198418  0.3685671007890803  0.05421673741691799  1.0000
  C   C114      1.0  0.9859983658620095  0.868567100834053  0.44578326219377035  1.0000
  C   C115      1.0  0.4859983654540425  0.6314328990754081  0.9457832621740919  1.0000
  C   C116      1.0  0.014001636331836048  0.13143289925589244  0.5542167373996864  1.0000
  C   C117      1.0  0.09972424752442037  0.3796604596490614  0.3403674081682444  1.0000
  C   C118      1.0  0.400275753677301  0.8796604596940342  0.15963259195730073  1.0000
  C   C119      1.0  0.9002757548790223  0.620339540440884  0.6596325920828459  1.0000
  C   C120      1.0  0.5997242461061806  0.12033954039591124  0.8403674082913428  1.0000
  C   C121      1.0  0.5674807969155737  0.35050453954265887  0.9834510375118485  1.0000
  C   C122      1.0  0.932519203860032  0.8505045395876316  0.5165489622047066  1.0000
  C   C123      1.0  0.43251920286790774  0.6494954605472866  0.016548962736795098  1.0000
  C   C124      1.0  0.06748079571385238  0.14949546050231385  0.4834510373863033  1.0000
  C   C125      1.0  0.4710727377494962  0.3195391181740284  0.9831412970498811  1.0000
  C   C126      1.0  0.028927264245979543  0.8195391179935441  0.5168587031815308  1.0000
  C   C127      1.0  0.5289272620339852  0.680460881915917  0.016858703198762388  1.0000
  C   C128      1.0  0.9710727381574632  0.1804608818709443  0.48314129706955955  1.0000
  C   C129      1.0  0.9657676850048407  0.3666999729482498  0.41206666160874583  1.0000
  C   C130      1.0  0.5342323151866079  0.8666999727677654  0.08793333865957606  1.0000
  C   C131      1.0  0.03423231477864093  0.6333000271416956  0.5879333386398977  1.0000
  C   C132      1.0  0.4657676845968737  0.13330002709672292  0.9120666615890674  1.0000
  C   C133      1.0  0.888130386375145  0.3353383893964938  0.4134844727128041  1.0000
  C   C134      1.0  0.6118696111963422  0.8353383894414664  0.08651552755307107  1.0000
  C   C135      1.0  0.11186961340833645  0.6646616106934516  0.5865155275358394  1.0000
  C   C136      1.0  0.3881303885871394  0.16466161064847892  0.9134844726955724  1.0000
  N   N1        1.0  0.8709114812853422  0.25305441825068664  0.9088329972545166  1.0000
  N   N2        1.0  0.6290885196998607  0.7530544180702023  0.5911670031196721  1.0000
  N   N3        1.0  0.12908851849813932  0.7469455818392587  0.09116700299412699  1.0000
  N   N4        1.0  0.37091148008362085  0.24694558179428608  0.40883299712897136  1.0000
  N   N5        1.0  0.9019067358218023  0.4712737971094695  0.9660262070528447  1.0000
  N   N6        1.0  0.5980932649538034  0.9712737969289852  0.5339737926637103  1.0000
  N   N7        1.0  0.09809326637204323  0.5287262029804759  0.033973792540612  1.0000
  N   N8        1.0  0.4019067346200809  0.02872620293550323  0.46602620692729957  1.0000
  N   N9        1.0  0.8823547254784363  0.49290845568296565  0.4114144859777195  1.0000
  N   N10       1.0  0.6176452745034149  0.9929084557279383  0.08858551363296882  1.0000
  N   N11       1.0  0.11764527409544798  0.5070915441815228  0.5885855136132904  1.0000
  N   N12       1.0  0.3823547276904306  0.007091544136550076  0.9114144859604879  1.0000
  N   N13       1.0  0.1292644031903921  0.3120009052071751  0.19786723854115396  1.0000
  N   N14       1.0  0.3707355978017321  0.8120009052521479  0.3021327609267576  1.0000
  N   N15       1.0  0.8707355963834922  0.6879990948827703  0.802132761049856  1.0000
  N   N16       1.0  0.6292644017721521  0.18799909483779764  0.6978672386642523  1.0000
  N   N17       1.0  0.3059387666265441  0.3744454228146192  0.1971707552554855  1.0000
  N   N18       1.0  0.19406123174561882  0.8744454228595919  0.30282924420997925  1.0000
  N   N19       1.0  0.6940612329473402  0.6255545772753263  0.8028292443355244  1.0000
  N   N20       1.0  0.8059387678282656  0.12555457723035351  0.6971707553810307  1.0000
  O   O1        1.0  0.4817317721721884  0.357878846186961  0.5996350803812404  1.0000
  O   O2        1.0  0.01826822720332619  0.8578788460064768  0.9003649198477247  1.0000
  O   O3        1.0  0.5182682276112932  0.6421211539029845  0.4003649198674032  1.0000
  O   O4        1.0  0.9817317725801553  0.14212115385801177  0.0996350804009187  1.0000
  I   I1        1.0  0.03024023722016813  0.4202669812874175  0.8672924581938997  1.0000
  I   I2        1.0  0.46975976477530773  0.9202669813323903  0.6327075420375122  1.0000
  I   I3        1.0  0.9697597651832747  0.5797330188025279  0.13270754205719063  1.0000
  I   I4        1.0  0.5302402350081739  0.07973301875755522  0.3672924582111313  1.0000
