data_image0
_chemical_formula_structural       H32C56N8O2I2
_chemical_formula_sum              "H32 C56 N8 O2 I2"
_cell_length_a       3.871298969756763
_cell_length_b       14.211359862858025
_cell_length_c       19.839061544390226
_cell_angle_alpha    83.61190400068625
_cell_angle_beta     87.59070999437377
_cell_angle_gamma    87.28479293019262

_space_group_name_H-M_alt    "P 1"
_space_group_IT_number       1

loop_
  _space_group_symop_operation_xyz
  'x, y, z'

loop_
  _atom_site_type_symbol
  _atom_site_label
  _atom_site_symmetry_multiplicity
  _atom_site_fract_x
  _atom_site_fract_y
  _atom_site_fract_z
  _atom_site_occupancy
  H   H1        1.0  0.2886009021774034  0.9292550266089711  0.19097272102204643  1.0000
  H   H2        1.0  0.7113990981165051  0.07074497372990651  0.8090272789711449  1.0000
  H   H3        1.0  0.5529444513759143  0.9831206813630989  0.0772489202825103  1.0000
  H   H4        1.0  0.4470555490497115  0.016879318271414825  0.9227510797101274  1.0000
  H   H5        1.0  0.9381968429419583  0.6959827172371793  0.05795596479061542  1.0000
  H   H6        1.0  0.06180315735195034  0.30401728310169834  0.9420440352025758  1.0000
  H   H7        1.0  0.660161524598746  0.6439142055130526  0.1710129631689148  1.0000
  H   H8        1.0  0.3398384758268799  0.35608579412146146  0.8289870368237229  1.0000
  H   H9        1.0  0.9264349288630773  0.3854483825759003  0.4744071859382078  1.0000
  H   H10       1.0  0.07356507156254871  0.6145516170586136  0.52559281405443  1.0000
  H   H11       1.0  0.20470496694698737  0.35132706420608883  0.5856488464124124  1.0000
  H   H12       1.0  0.7952950333469212  0.6486729361327888  0.4143511535807788  1.0000
  H   H13       1.0  0.4687297351672808  0.19237025325318355  0.6211981109486167  1.0000
  H   H14       1.0  0.5312702626757322  0.8076297463788874  0.3788018890437518  1.0000
  H   H15       1.0  0.45994812452277517  0.06301855967565535  0.5455186555017327  1.0000
  H   H16       1.0  0.5400518759028508  0.9369814399588585  0.45448134449090505  1.0000
  H   H17       1.0  0.09560033943129846  0.9517573320222134  0.3463463833537618  1.0000
  H   H18       1.0  0.9043996608626101  0.0482426683166642  0.6536536166394294  1.0000
  H   H19       1.0  0.8215324318759556  0.9812890608235287  0.23493318421731865  1.0000
  H   H20       1.0  0.17846756596705746  0.018710938808542226  0.7650668157750496  1.0000
  H   H21       1.0  0.5971368234196397  0.14274761231968242  0.19263828117061177  1.0000
  H   H22       1.0  0.40286317687426904  0.8572523880191951  0.8073617188225796  1.0000
  H   H23       1.0  0.6104197022314327  0.2752152182031818  0.2645851295314569  1.0000
  H   H24       1.0  0.3895802979654012  0.7247847820573288  0.7354148709692876  1.0000
  H   H25       1.0  0.20080338602896058  0.24897218794684003  0.16248347986003914  1.0000
  H   H26       1.0  0.7991966142649481  0.7510278123920376  0.837516520133152  1.0000
  H   H27       1.0  0.5349156042466731  0.2594662467392008  0.052122405468792786  1.0000
  H   H28       1.0  0.4650843934646226  0.740533753597234  0.9478775945241291  1.0000
  H   H29       1.0  0.07731846383699749  0.5536243149605834  0.14857734807441766  1.0000
  H   H30       1.0  0.9226815365886283  0.44637568467393046  0.8514226519182202  1.0000
  H   H31       1.0  0.9939766496364074  0.3952925183348941  0.21235147263712992  1.0000
  H   H32       1.0  0.006023350657501279  0.6047074820039836  0.7876485273560614  1.0000
  C   C1        1.0  0.4598030911428285  0.7834108354171391  0.18759105431303574  1.0000
  C   C2        1.0  0.5401969067001844  0.21658916421493193  0.8124089456793325  1.0000
  C   C3        1.0  0.4289075745721614  0.8790914861956866  0.16113410086438848  1.0000
  C   C4        1.0  0.5710924258534645  0.12090851343882722  0.8388658991282493  1.0000
  C   C5        1.0  0.5740506708223394  0.908938418168933  0.0977530415967478  1.0000
  C   C6        1.0  0.42594932960328646  0.09106158146558087  0.9022469583958899  1.0000
  C   C7        1.0  0.7546966581830916  0.8423779591107049  0.06030698018030884  1.0000
  C   C8        1.0  0.245303339528204  0.15762204122572987  0.9396930198126132  1.0000
  C   C9        1.0  0.7901184278370619  0.7464982000422034  0.08655533040322137  1.0000
  C   C10       1.0  0.2098815724568467  0.25350180029667435  0.9134446695899701  1.0000
  C   C11       1.0  0.6407576519023169  0.7180098663962198  0.14997283811882856  1.0000
  C   C12       1.0  0.35924234839159147  0.28199013394265804  0.8500271618743628  1.0000
  C   C13       1.0  0.29685099621359823  0.752951785941235  0.25547472690891987  1.0000
  C   C14       1.0  0.7031490042120279  0.24704821369327887  0.7445252730837177  1.0000
  C   C15       1.0  0.3672561932414461  0.6564112086198411  0.2827059772943662  1.0000
  C   C16       1.0  0.6327438046015668  0.3435887910122298  0.7172940226980021  1.0000
  C   C17       1.0  0.45002446429637055  0.5751822102967215  0.30560481904741976  1.0000
  C   C18       1.0  0.5499755359004634  0.4248177899637891  0.6943951814533248  1.0000
  C   C19       1.0  0.9032133037272843  0.8713017779513894  0.9947375482224234  1.0000
  C   C20       1.0  0.09678669656662416  0.12869822238748813  0.005262451770768016  1.0000
  C   C21       1.0  0.029185360569917676  0.2435142131870055  0.4462884005428459  1.0000
  C   C22       1.0  0.9708146397239907  0.7564857871518722  0.5537115994503453  1.0000
  C   C23       1.0  0.04340425295214165  0.31568658395813604  0.4902511057565664  1.0000
  C   C24       1.0  0.9565957474734842  0.6843134156763778  0.5097488942360714  1.0000
  C   C25       1.0  0.19686077806864974  0.29628519506868006  0.5516937707192012  1.0000
  C   C26       1.0  0.8031392223569761  0.7037148045658337  0.4483062292734365  1.0000
  C   C27       1.0  0.34734873738944655  0.20482075883122408  0.5723671618289388  1.0000
  C   C28       1.0  0.6526512629044621  0.7951792415076535  0.4276328381642526  1.0000
  C   C29       1.0  0.34125803528339077  0.133306121464101  0.5314500519727688  1.0000
  C   C30       1.0  0.6587419650105178  0.8666938788747766  0.4685499480204224  1.0000
  C   C31       1.0  0.1792381799460293  0.14998857010869135  0.4678133265450714  1.0000
  C   C32       1.0  0.8207618203478795  0.8500114302301862  0.5321866734481199  1.0000
  C   C33       1.0  0.013904049096573584  0.09658744025168436  0.36944329667276615  1.0000
  C   C34       1.0  0.9860959511973351  0.9034125600871932  0.6305567033204251  1.0000
  C   C35       1.0  0.9918252706366929  0.021935125711314885  0.3278375154990569  1.0000
  C   C36       1.0  0.00817472978893293  0.978064873923199  0.6721624844935808  1.0000
  C   C37       1.0  0.8413241458201731  0.039054943013468485  0.26609876462888676  1.0000
  C   C38       1.0  0.15867585189112254  0.9609450573229663  0.7339012353640352  1.0000
  C   C39       1.0  0.708417768779206  0.13126447913881742  0.24255940112641045  1.0000
  C   C40       1.0  0.2915822289320896  0.8687355211976173  0.7574405988665115  1.0000
  C   C41       1.0  0.7184960443540014  0.2048806068039468  0.2817998774582885  1.0000
  C   C42       1.0  0.2815039558428328  0.7951193934565637  0.7182001230424561  1.0000
  C   C43       1.0  0.8697778073332207  0.190057149463566  0.3465281352696819  1.0000
  C   C44       1.0  0.1302221930924053  0.8099428501709477  0.6534718647229558  1.0000
  C   C45       1.0  0.2497601879258501  0.31764984917372346  0.1344431973435291  1.0000
  C   C46       1.0  0.7502398123680585  0.6823501511651542  0.8655568026496623  1.0000
  C   C47       1.0  0.42747015065899757  0.3227923381929899  0.07290391493809267  1.0000
  C   C48       1.0  0.5725298497666284  0.6772076614415239  0.9270960850545451  1.0000
  C   C49       1.0  0.4733999530974305  0.41235990262827726  0.03456286497134362  1.0000
  C   C50       1.0  0.5266000447455824  0.5876400970037936  0.9654371350210247  1.0000
  C   C51       1.0  0.3347626358937116  0.49736478796002564  0.061827344348457706  1.0000
  C   C52       1.0  0.6652373645319144  0.5026352116744882  0.9381726556441801  1.0000
  C   C53       1.0  0.16774795414735508  0.48898701675030504  0.12744833334673372  1.0000
  C   C54       1.0  0.8322520462782708  0.5110129828842087  0.872551666645904  1.0000
  C   C55       1.0  0.12525529884450914  0.4012490502773994  0.1624821897001722  1.0000
  C   C56       1.0  0.8747447014493995  0.5987509500614782  0.8375178102930191  1.0000
  N   N1        1.0  0.02344025338852809  0.8924638190239282  0.9404161504293179  1.0000
  N   N2        1.0  0.9765597444544848  0.1075361806081427  0.05958384956305054  1.0000
  N   N3        1.0  0.8795702451851508  0.2616552291527385  0.3857279134439145  1.0000
  N   N4        1.0  0.12042975524047517  0.7383447704817753  0.6142720865487233  1.0000
  N   N5        1.0  0.16923647227353558  0.07861877574921981  0.42906973107023466  1.0000
  N   N6        1.0  0.8307635255694773  0.921381223882851  0.5709302689221337  1.0000
  N   N7        1.0  0.361748284698606  0.5833819187809823  0.02670473970212665  1.0000
  N   N8        1.0  0.63825171572702  0.41661808085353147  0.9732952602905109  1.0000
  O   O1        1.0  0.11246532797356906  0.8084546301223334  0.28688054792008894  1.0000
  O   O2        1.0  0.8875346724520569  0.19154536951218043  0.7131194520725488  1.0000
  I   I1        1.0  0.612792604770133  0.442969493732796  0.3418853968845637  1.0000
  I   I2        1.0  0.38720739565549295  0.5570305059017179  0.658114603108074  1.0000
