data_image0
_chemical_formula_structural       H32C60N8O12I4
_chemical_formula_sum              "H32 C60 N8 O12 I4"
_cell_length_a       4.0327125105799615
_cell_length_b       33.564884192812556
_cell_length_c       9.956806599047656
_cell_angle_alpha    90.0
_cell_angle_beta     91.88151062929195
_cell_angle_gamma    90.0

_space_group_name_H-M_alt    "P 1"
_space_group_IT_number       1

loop_
  _space_group_symop_operation_xyz
  'x, y, z'

loop_
  _atom_site_type_symbol
  _atom_site_label
  _atom_site_symmetry_multiplicity
  _atom_site_fract_x
  _atom_site_fract_y
  _atom_site_fract_z
  _atom_site_occupancy
  H   H1        1.0  0.509144059769086  0.18260979316331136  0.7013333641130919  1.0000
  H   H2        1.0  0.4908559397702552  0.6826097932703792  0.7986666364734144  1.0000
  H   H3        1.0  0.4908559412680465  0.817390206752894  0.2986666362371514  1.0000
  H   H4        1.0  0.5091440587883012  0.3173902069437565  0.2013333638887803  1.0000
  H   H5        1.0  0.24684410055141998  0.24361615410402568  0.6054832518874298  1.0000
  H   H6        1.0  0.7531558988769752  0.7436161542110936  0.8945167476942675  1.0000
  H   H7        1.0  0.7531559003747665  0.7563838458121797  0.3945167474580046  1.0000
  H   H8        1.0  0.2468440996815811  0.2563838460030422  0.10548325266792706  1.0000
  H   H9        1.0  0.8693909357248043  0.17674914907855915  0.26453634238586277  1.0000
  H   H10       1.0  0.13060906433154315  0.676749149185627  0.2354636577400689  1.0000
  H   H11       1.0  0.13060906531232816  0.8232508508376462  0.7354636579643804  1.0000
  H   H12       1.0  0.8693909367055895  0.3232508507305783  0.7645363426101742  1.0000
  H   H13       1.0  0.14588524420581286  0.11494686344921679  0.3586037072620921  1.0000
  H   H14       1.0  0.8541147558505346  0.6149468635562846  0.14139629286383953  1.0000
  H   H15       1.0  0.8541147568313199  0.8850531364669886  0.6413962930881512  1.0000
  H   H16       1.0  0.14588524270802153  0.38505313635992067  0.8586037074983549  1.0000
  H   H17       1.0  0.9988477964016226  0.43726511897642173  0.30462757821816877  1.0000
  H   H18       1.0  0.0011522036547251958  0.9372651190834895  0.1953724219077629  1.0000
  H   H19       1.0  0.0011522046355102193  0.5627348809397836  0.6953724221320746  1.0000
  H   H20       1.0  0.9988477949038311  0.06273488083271574  0.8046275784544317  1.0000
  H   H21       1.0  0.011470142722000127  0.5500907062254589  0.10009957231299724  1.0000
  H   H22       1.0  0.9885298573343475  0.05009070641632138  0.3999004278129344  1.0000
  H   H23       1.0  0.9885298583151324  0.4499092936907465  0.899900428037246  1.0000
  H   H24       1.0  0.011470141113262692  0.9499092937978144  0.6000995715444514  1.0000
  H   H25       1.0  0.3821447863162952  0.5788506112039694  0.28067293177090924  1.0000
  H   H26       1.0  0.6178552136291063  0.07885061139483193  0.21932706735021362  1.0000
  H   H27       1.0  0.617855212131315  0.42114938871223595  0.7193270675864766  1.0000
  H   H28       1.0  0.3821447872970802  0.9211493888193037  0.7806729319952208  1.0000
  H   H29       1.0  0.8182786699928123  0.4797211328811308  0.1152560743872204  1.0000
  H   H30       1.0  0.18172133006353525  0.9797211329881987  0.38474392573871125  1.0000
  H   H31       1.0  0.181721328565744  0.5202788670350745  0.8847439259749742  1.0000
  H   H32       1.0  0.8182786708626513  0.020278867225937077  0.6152560736067232  1.0000
  C   C1        1.0  0.3662629108033126  0.18135526298951096  0.6069773830523257  1.0000
  C   C2        1.0  0.6337370887360287  0.6813552630965788  0.8930226175341804  1.0000
  C   C3        1.0  0.6337370902338201  0.8186447369266945  0.3930226172979175  1.0000
  C   C4        1.0  0.3662629098225275  0.3186447368196265  0.10697738282801417  1.0000
  C   C5        1.0  0.03868974141669148  0.21344117169735674  0.43008865751505065  1.0000
  C   C6        1.0  0.9613102586396561  0.7134411718044246  0.06991134261088096  1.0000
  C   C7        1.0  0.9613102596204411  0.7865588282188486  0.5699113428351925  1.0000
  C   C8        1.0  0.03868974239747651  0.28655882811178074  0.9300886577393623  1.0000
  C   C9        1.0  0.3341577207508751  0.14580655043785243  0.5353653905140624  1.0000
  C   C10       1.0  0.6658422787884664  0.64580655024699  0.9646346100724439  1.0000
  C   C11       1.0  0.6658422778076812  0.8541934497762833  0.4646346098481323  1.0000
  C   C12       1.0  0.33415772224866636  0.35419344966921545  0.03536539027779938  1.0000
  C   C13       1.0  0.2183993130446731  0.21540909387520665  0.5526641708161332  1.0000
  C   C14       1.0  0.781600686383722  0.7154090939822746  0.9473358287655641  1.0000
  C   C15       1.0  0.7816006855138832  0.7845909060409987  0.4473358295460615  1.0000
  C   C16       1.0  0.21839931454246445  0.28459090623186123  0.05266417057987024  1.0000
  C   C17       1.0  0.008422503754139709  0.17725274473832367  0.36011180000313037  1.0000
  C   C18       1.0  0.9915774963022079  0.6772527448453916  0.13988820012280126  1.0000
  C   C19       1.0  0.9915774972829929  0.8227472551778816  0.6398882003471129  1.0000
  C   C20       1.0  0.008422502256348411  0.3227472550708138  0.8601118002393934  1.0000
  C   C21       1.0  0.06863488856706389  0.32068294316668283  0.4594292273098433  1.0000
  C   C22       1.0  0.9313651114892837  0.8206829432737507  0.04057077281608831  1.0000
  C   C23       1.0  0.9313651099914924  0.6793170567495225  0.5405707730523512  1.0000
  C   C24       1.0  0.0686348894369028  0.17931705664245465  0.9594292265293463  1.0000
  C   C25       1.0  0.9741332285512847  0.2874824362440751  0.42420202671902757  1.0000
  C   C26       1.0  0.02586677150506288  0.7874824360532126  0.07579797340690417  1.0000
  C   C27       1.0  0.025866772485847896  0.7125175639700606  0.5757979736312158  1.0000
  C   C28       1.0  0.9741332295320697  0.21251756386299278  0.9242020269433391  1.0000
  C   C29       1.0  0.15858609660450435  0.14316957694223248  0.41204462333581143  1.0000
  C   C30       1.0  0.8414139034518433  0.64316957675137  0.08795537679012015  1.0000
  C   C31       1.0  0.841413901954052  0.8568304229739728  0.5879553770263831  1.0000
  C   C32       1.0  0.1585860974743432  0.35683042316483543  0.9120446225553143  1.0000
  C   C33       1.0  0.8785313085196441  0.24952393376031487  0.36984545630823656  1.0000
  C   C34       1.0  0.12146869153670352  0.7495239338673827  0.13015454381769506  1.0000
  C   C35       1.0  0.12146869003891221  0.7504760661558905  0.630154544053958  1.0000
  C   C36       1.0  0.8785313095004291  0.2504760660488226  0.8698454565325483  1.0000
  C   C37       1.0  0.08470152519541163  0.46791892978922117  0.2988772440048502  1.0000
  C   C38       1.0  0.915298474860936  0.967918929896289  0.2011227561210814  1.0000
  C   C39       1.0  0.9152984733631446  0.5320810701269841  0.7011227563573443  1.0000
  C   C40       1.0  0.0847015260652505  0.032081070317846676  0.798877243224353  1.0000
  C   C41       1.0  0.09387238728035777  0.5320330923061536  0.18562154417069493  1.0000
  C   C42       1.0  0.9061276127759899  0.032033092497016157  0.31437845595523667  1.0000
  C   C43       1.0  0.9061276137567749  0.4679669076100517  0.8143784561795484  1.0000
  C   C44       1.0  0.09387238578256644  0.9679669077171196  0.6856215444069579  1.0000
  C   C45       1.0  0.2976875571929786  0.48323292423196285  0.4033024724415966  1.0000
  C   C46       1.0  0.702312442863369  0.9832329243390308  0.096697527684335  1.0000
  C   C47       1.0  0.7023124412546315  0.5167670756842424  0.5966975269157891  1.0000
  C   C48       1.0  0.2976875581737636  0.01676707557717456  0.9033024726659081  1.0000
  C   C49       1.0  0.2966850440894563  0.5480932087928785  0.2849457036904388  1.0000
  C   C50       1.0  0.7033149559668914  0.04809320868581061  0.21505429643549284  1.0000
  C   C51       1.0  0.7033149568367302  0.4519067914212573  0.7150542956549957  1.0000
  C   C52       1.0  0.29668504507024124  0.9519067912303948  0.7849457039147503  1.0000
  C   C53       1.0  0.9859160822974001  0.4917925789696224  0.19310823804842803  1.0000
  C   C54       1.0  0.014083917758947542  0.9917925787787598  0.3068917620775036  1.0000
  C   C55       1.0  0.014083916261156234  0.5082074212445135  0.8068917623137666  1.0000
  C   C56       1.0  0.985916083278185  0.008207421137445497  0.6931082382727396  1.0000
  C   C57       1.0  0.40425338425083224  0.5244629461218147  0.3966306910658599  1.0000
  C   C58       1.0  0.5957466158055154  0.024462946312677165  0.1033693090600717  1.0000
  C   C59       1.0  0.5957466167863004  0.4755370537943907  0.6033693092843833  1.0000
  C   C60       1.0  0.4042533827530409  0.9755370539014586  0.896630691302123  1.0000
  N   N1        1.0  0.5003646791273745  0.11013596527741323  0.5889986292454598  1.0000
  N   N2        1.0  0.4996353203010207  0.6101359653844811  0.9110013703362377  1.0000
  N   N3        1.0  0.4996353194311819  0.889864034638792  0.41100137111673496  1.0000
  N   N4        1.0  0.5003646781465895  0.38986403453172425  0.08899862902114813  1.0000
  N   N5        1.0  0.39597073649981773  0.4596787532877564  0.5066561630603464  1.0000
  N   N6        1.0  0.6040292629285774  0.9596787533948242  0.9933438365213508  1.0000
  N   N7        1.0  0.6040292644263687  0.5403212466284489  0.493343836285088  1.0000
  N   N8        1.0  0.3959707355190327  0.04032124652138101  0.00665616283603491  1.0000
  O   O1        1.0  0.675359369781613  0.24686756052548356  0.27385333791161964  1.0000
  O   O2        1.0  0.3246406302747346  0.7468675606325514  0.22614666221431204  1.0000
  O   O3        1.0  0.3246406312555196  0.7531324393907217  0.7261466624386237  1.0000
  O   O4        1.0  0.6753593707623979  0.2531324392836539  0.7738533381359313  1.0000
  O   O5        1.0  0.46403932544314863  0.07834263556205218  0.5257140054043213  1.0000
  O   O6        1.0  0.5359606739852466  0.5783426356691201  0.9742859941773763  1.0000
  O   O7        1.0  0.5359606754830379  0.9216573643541531  0.47428599394111326  1.0000
  O   O8        1.0  0.4640393245733097  0.4216573642470853  0.025714006184818453  1.0000
  O   O9        1.0  0.672278135549078  0.1134423330087151  0.6941361136194542  1.0000
  O   O10       1.0  0.32772186387931707  0.613442333115783  0.805863885962243  1.0000
  O   O11       1.0  0.327721862898532  0.8865576669074902  0.3058638857379316  1.0000
  O   O12       1.0  0.6722781371578156  0.3865576668004223  0.19413611438800002  1.0000
  I   I1        1.0  0.21404836526978266  0.3767651861199622  0.4962447860065032  1.0000
  I   I2        1.0  0.7859516346756189  0.8767651859290996  0.003755213114619723  1.0000
  I   I3        1.0  0.7859516356564038  0.6232348140941736  0.5037552133389314  1.0000
  I   I4        1.0  0.21404836377199138  0.1232348139871057  0.996244786242766  1.0000
