data_image0
_chemical_formula_structural       H6C10N2O4Cl2
_chemical_formula_sum              "H6 C10 N2 O4 Cl2"
_cell_length_a       4.829000423699684
_cell_length_b       5.813649349781657
_cell_length_c       10.533010320401992
_cell_angle_alpha    81.83298444823009
_cell_angle_beta     80.88942782810042
_cell_angle_gamma    78.16439807540179

_space_group_name_H-M_alt    "P 1"
_space_group_IT_number       1

loop_
  _space_group_symop_operation_xyz
  'x, y, z'

loop_
  _atom_site_type_symbol
  _atom_site_label
  _atom_site_symmetry_multiplicity
  _atom_site_fract_x
  _atom_site_fract_y
  _atom_site_fract_z
  _atom_site_occupancy
  H   H1        1.0  0.1710474774977545  0.14412452423810473  0.7238533743743086  1.0000
  H   H2        1.0  0.8289525217213446  0.8558754764915932  0.27614662515611  1.0000
  H   H3        1.0  0.1884875845704872  0.6169977206188265  0.11087939618578481  1.0000
  H   H4        1.0  0.8115124148095239  0.3830022781490047  0.889120604309999  1.0000
  H   H5        1.0  0.3282250260470384  0.7195935090977417  0.8696575200891038  1.0000
  H   H6        1.0  0.6717749736139613  0.2804064898750165  0.13034247943891555  1.0000
  C   C1        1.0  0.6359824853948246  0.6289761469723462  0.5724859192674312  1.0000
  C   C2        1.0  0.3640175158939254  0.37102385376375513  0.42751408026175836  1.0000
  C   C3        1.0  0.4737295889084332  0.45592009415298534  0.6394621812376542  1.0000
  C   C4        1.0  0.5262704104715781  0.5440799046148462  0.36053781925812944  1.0000
  C   C5        1.0  0.33377141690357437  0.32515259488645887  0.5600643104774081  1.0000
  C   C6        1.0  0.6662285843851756  0.6748474058496424  0.4399356890517815  1.0000
  C   C7        1.0  0.10301105596791417  0.7873392611878014  0.06024674313524313  1.0000
  C   C8        1.0  0.8969889432511847  0.21266073954189646  0.9397532563951756  1.0000
  C   C9        1.0  0.18309441526669218  0.8455919098769078  0.9284007468747687  1.0000
  C   C10       1.0  0.8169055843943077  0.1544080890958502  0.07159925265325047  1.0000
  N   N1        1.0  0.9206292095661263  0.9416162523717321  0.13103083399373933  1.0000
  N   N2        1.0  0.07937079144163502  0.058383748159442576  0.8689691665032148  1.0000
  O   O1        1.0  0.18293145868366426  0.17117653245469097  0.6217826161422311  1.0000
  O   O2        1.0  0.8170685426050858  0.8288234682814102  0.37821738338695854  1.0000
  O   O3        1.0  0.439528260414462  0.4067135935592517  0.7590182199283807  1.0000
  O   O4        1.0  0.5604717389655491  0.5932864052085796  0.24098178056740294  1.0000
  Cl  Cl1       1.0  0.7954886210897384  0.7761784677471509  0.6626392522909637  1.0000
  Cl  Cl2       1.0  0.20451137784837203  0.2238215327776202  0.3373607482072197  1.0000
