data_image0
_chemical_formula_structural       H6C10N2O4Cl2
_chemical_formula_sum              "H6 C10 N2 O4 Cl2"
_cell_length_a       4.936663766794416
_cell_length_b       5.707990485332672
_cell_length_c       10.603356956519203
_cell_angle_alpha    81.37591577206041
_cell_angle_beta     80.74322721428554
_cell_angle_gamma    77.95731189298134

_space_group_name_H-M_alt    "P 1"
_space_group_IT_number       1

loop_
  _space_group_symop_operation_xyz
  'x, y, z'

loop_
  _atom_site_type_symbol
  _atom_site_label
  _atom_site_symmetry_multiplicity
  _atom_site_fract_x
  _atom_site_fract_y
  _atom_site_fract_z
  _atom_site_occupancy
  H   H1        1.0  0.16507380413935943  0.1471490031972994  0.7245426053365636  1.0000
  H   H2        1.0  0.8349261966184253  0.8528509957383805  0.2754573948887605  1.0000
  H   H3        1.0  0.20081021245980124  0.6141520717465055  0.11179302618312817  1.0000
  H   H4        1.0  0.7991897862734403  0.3858479271866145  0.8882069740407659  1.0000
  H   H5        1.0  0.333652726052229  0.7220264787141892  0.8709091779912703  1.0000
  H   H6        1.0  0.6663472745533661  0.2779735222301564  0.12909082127132188  1.0000
  C   C1        1.0  0.6346469222531512  0.6300186066333474  0.5709379267476563  1.0000
  C   C2        1.0  0.36535307806927836  0.36998139409372155  0.4290620734774991  1.0000
  C   C3        1.0  0.470452377981681  0.45834694668763515  0.6389946566952407  1.0000
  C   C4        1.0  0.5295476226239142  0.5416530542567105  0.36100534256735156  1.0000
  C   C5        1.0  0.3317157479702184  0.32644720295581736  0.5610540472188641  1.0000
  C   C6        1.0  0.6682842527875661  0.6735527959798625  0.43894595300646  1.0000
  C   C7        1.0  0.11016713171632739  0.7856605800531461  0.06074893065173368  1.0000
  C   C8        1.0  0.8898328686061023  0.2143394206739231  0.9392510695734216  1.0000
  C   C9        1.0  0.1861382911978717  0.8466317056086186  0.9293863965436552  1.0000
  C   C10       1.0  0.8138617071000147  0.15336829511589073  0.0706136036800704  1.0000
  N   N1        1.0  0.9248096541067627  0.9391573459749619  0.1305044942372781  1.0000
  N   N2        1.0  0.07519034419112378  0.0608426547495472  0.8694955059864474  1.0000
  O   O1        1.0  0.17904113975310654  0.17328937505867142  0.6230613775713593  1.0000
  O   O2        1.0  0.8209588605693232  0.8267106256683976  0.3769386226537961  1.0000
  O   O3        1.0  0.4343332989004971  0.41120345477100484  0.7581285282860337  1.0000
  O   O4        1.0  0.5656666998327443  0.5887965441621151  0.2418714719378605  1.0000
  Cl  Cl1       1.0  0.7926344224994093  0.7793827889210077  0.6588418667272936  1.0000
  Cl  Cl2       1.0  0.20736557782302018  0.2206172118060614  0.3411581334978619  1.0000
