data_image0
_chemical_formula_structural       H48C88N12O8I4
_chemical_formula_sum              "H48 C88 N12 O8 I4"
_cell_length_a       3.8281703591741603
_cell_length_b       28.720850651975137
_cell_length_c       16.109539494848214
_cell_angle_alpha    90.0
_cell_angle_beta     94.28593351360345
_cell_angle_gamma    90.0

_space_group_name_H-M_alt    "P 1"
_space_group_IT_number       1

loop_
  _space_group_symop_operation_xyz
  'x, y, z'

loop_
  _atom_site_type_symbol
  _atom_site_label
  _atom_site_symmetry_multiplicity
  _atom_site_fract_x
  _atom_site_fract_y
  _atom_site_fract_z
  _atom_site_occupancy
  H   H1        1.0  0.8754210956393158  0.5725135132398735  0.09538003435492257  1.0000
  H   H2        1.0  0.8754210951417231  0.42748648669135625  0.5953800343238461  1.0000
  H   H3        1.0  0.37542109576375093  0.07251351310016912  0.09538003399766194  1.0000
  H   H4        1.0  0.3754210952661582  0.9274864868310606  0.5953800339665856  1.0000
  H   H5        1.0  0.6657920650238202  0.4916010507867399  0.07137981164755963  1.0000
  H   H6        1.0  0.6657920671366323  0.50839894914449  0.5713798116110476  1.0000
  H   H7        1.0  0.16579206514825529  0.9916010509264442  0.071379811290299  1.0000
  H   H8        1.0  0.16579206726106738  0.008398949352964619  0.5713798112537868  1.0000
  H   H9        1.0  0.7867324787971136  0.4308192058771446  0.18064227914759107  1.0000
  H   H10       1.0  0.7867324782995208  0.5691807940540852  0.6806422791165146  1.0000
  H   H11       1.0  0.2867324789215488  0.93081920566867  0.18064227879033043  1.0000
  H   H12       1.0  0.28673247842395594  0.06918079426255985  0.6806422787592539  1.0000
  H   H13       1.0  0.36241407833826134  0.5316017866257041  0.3354608634925241  1.0000
  H   H14       1.0  0.36241407784066854  0.4683982133055258  0.8354608634614477  1.0000
  H   H15       1.0  0.8624140782138261  0.03160178683417868  0.3354608638497847  1.0000
  H   H16       1.0  0.8624140777162334  0.9683982130970511  0.8354608638187082  1.0000
  H   H17       1.0  0.3032710677206154  0.28057801169081387  0.8261429916067091  1.0000
  H   H18       1.0  0.30327106821820815  0.7194219885885951  0.3261429916377856  1.0000
  H   H19       1.0  0.8032710675961802  0.7805780114823393  0.8261429919639697  1.0000
  H   H20       1.0  0.803271068093773  0.21942198844889058  0.32614299199504615  1.0000
  H   H21       1.0  0.3569921947894299  0.225187052026094  0.4471276324435467  1.0000
  H   H22       1.0  0.35699219429183715  0.7748129479051359  0.9471276324124703  1.0000
  H   H23       1.0  0.8569921946649948  0.7251870521657985  0.44712763280080736  1.0000
  H   H24       1.0  0.8569921941674019  0.2748129481136105  0.9471276327697308  1.0000
  H   H25       1.0  0.20782529562759267  0.15566690221595286  0.3604873704133277  1.0000
  H   H26       1.0  0.20782529512999984  0.844333097715277  0.8604873703822512  1.0000
  H   H27       1.0  0.7078252952845859  0.6556669020074782  0.36048737014812104  1.0000
  H   H28       1.0  0.7078252947869932  0.3443330979237516  0.8604873701170447  1.0000
  H   H29       1.0  0.314165464929258  0.1316239653138555  0.7880700031049571  1.0000
  H   H30       1.0  0.314165462816446  0.8683760346173743  0.28807000314146936  1.0000
  H   H31       1.0  0.8141654645862513  0.6316239651053809  0.7880700028397505  1.0000
  H   H32       1.0  0.814165465083844  0.36837603482584896  0.28807000287082696  1.0000
  H   H33       1.0  0.3938862396704174  0.07645132891803809  0.4096649537807357  1.0000
  H   H34       1.0  0.39388623917282467  0.9235486710131917  0.9096649537496593  1.0000
  H   H35       1.0  0.8938862393274107  0.5764513290577427  0.40966495351552906  1.0000
  H   H36       1.0  0.8938862414402229  0.42354867087348724  0.9096649534790169  1.0000
  H   H37       1.0  0.7427941964828106  0.06662358518508606  0.5444681963537568  1.0000
  H   H38       1.0  0.7427941969804034  0.9333764147461437  0.04446819638483317  1.0000
  H   H39       1.0  0.2427941968258173  0.5666235853247905  0.5444681966189634  1.0000
  H   H40       1.0  0.24279419732341007  0.43337641460643933  0.044468196650039815  1.0000
  H   H41       1.0  0.940049986987877  0.29183051684521033  0.6959922692998076  1.0000
  H   H42       1.0  0.9400499874854698  0.7081694830860196  0.19599226933088404  1.0000
  H   H43       1.0  0.44004998711231214  0.7918305166367356  0.695992268942547  1.0000
  H   H44       1.0  0.440049987609905  0.20816948329449414  0.19599226897362343  1.0000
  H   H45       1.0  0.4891152378678051  0.20078425496089627  0.87393348415571  1.0000
  H   H46       1.0  0.4891152383653979  0.7992157453185126  0.37393348418678646  1.0000
  H   H47       1.0  0.9891152377433698  0.7007842547524216  0.8739334845129706  1.0000
  H   H48       1.0  0.9891152382409627  0.2992157451788082  0.37393348454404707  1.0000
  C   C1        1.0  0.9297049543522795  0.5458947852897867  0.14262190099384742  1.0000
  C   C2        1.0  0.9297049538546867  0.45410521464144304  0.6426219009627709  1.0000
  C   C3        1.0  0.4297049546952862  0.045894785150082294  0.14262190125905405  1.0000
  C   C4        1.0  0.42970495419769345  0.9541052147811476  0.6426219012279777  1.0000
  C   C5        1.0  0.33869283045514376  0.3719381267443543  0.4836146635113378  1.0000
  C   C6        1.0  0.33869282995755096  0.6280618731868756  0.9836146634802613  1.0000
  C   C7        1.0  0.838692830112137  0.8719381268840588  0.48361466324613117  1.0000
  C   C8        1.0  0.8386928296145442  0.12806187304717107  0.9836146632150546  1.0000
  C   C9        1.0  0.25549872583538874  0.6030236833813607  0.2309143702601539  1.0000
  C   C10       1.0  0.25549872533779594  0.39697631689804835  0.7309143702290775  1.0000
  C   C11       1.0  0.7554987254923821  0.10302368324165614  0.23091436999494727  1.0000
  C   C12       1.0  0.755498727605194  0.8969763166895737  0.7309143699584351  1.0000
  C   C13       1.0  0.812982394660124  0.5004463855951826  0.1296408485185197  1.0000
  C   C14       1.0  0.8129823941625313  0.4995536143360473  0.6296408484874433  1.0000
  C   C15       1.0  0.3129823950031308  0.0004463854554780858  0.12964084878372634  1.0000
  C   C16       1.0  0.312982394505538  0.9995536144757518  0.6296408487526499  1.0000
  C   C17       1.0  0.22945508082578744  0.4069265402902077  0.44689651131614444  1.0000
  C   C18       1.0  0.2294550803281946  0.5930734596410222  0.9468965112850679  1.0000
  C   C19       1.0  0.7294550804827806  0.906926540081733  0.4468965110509378  1.0000
  C   C20       1.0  0.7294550799851878  0.09307345984949673  0.9468965110198614  1.0000
  C   C21       1.0  0.8840714987769027  0.46628833429343486  0.19020530569587477  1.0000
  C   C22       1.0  0.8840715008897148  0.5337116656377949  0.6902053056593624  1.0000
  C   C23       1.0  0.38407149911990945  0.9662883344331393  0.19020530596108137  1.0000
  C   C24       1.0  0.3840714986223166  0.03371166584626959  0.690205305930005  1.0000
  C   C25       1.0  0.20263993015725384  0.5231727859344117  0.2787874733519714  1.0000
  C   C26       1.0  0.20263992987823265  0.47682721399681804  0.7787874739433622  1.0000
  C   C27       1.0  0.7026399300328188  0.023172786142886422  0.27878747370923207  1.0000
  C   C28       1.0  0.7026399295352258  0.9768272137883435  0.7787874736781556  1.0000
  C   C29       1.0  0.10141905616417067  0.44693384452793855  0.4021154546777973  1.0000
  C   C30       1.0  0.10141905566657788  0.5530661557514703  0.9021154546467209  1.0000
  C   C31       1.0  0.601419055821164  0.9469338443194639  0.4021154544125906  1.0000
  C   C32       1.0  0.6014190553235712  0.05306615561176587  0.9021154543815142  1.0000
  C   C33       1.0  0.07883734075841407  0.47825223550805196  0.2636832132851041  1.0000
  C   C34       1.0  0.0788373404793929  0.521747764771357  0.763683213876495  1.0000
  C   C35       1.0  0.578837340633979  0.9782522352995774  0.2636832136423647  1.0000
  C   C36       1.0  0.5788373401363862  0.02174776463165255  0.7636832136112883  1.0000
  C   C37       1.0  0.1243591063127774  0.5571294532287676  0.2174158083892712  1.0000
  C   C38       1.0  0.12435910581518461  0.4428705467024623  0.7174158083581947  1.0000
  C   C39       1.0  0.6243591061883422  0.05712945343724217  0.21741580874653182  1.0000
  C   C40       1.0  0.6243591056907495  0.9428705468421668  0.7174158087154554  1.0000
  C   C41       1.0  0.22134721947766525  0.2503040560014059  0.7889930546473933  1.0000
  C   C42       1.0  0.2213472173648532  0.749695943929824  0.2889930546839055  1.0000
  C   C43       1.0  0.7213472191346585  0.7503040557929312  0.7889930543821867  1.0000
  C   C44       1.0  0.7213472196322512  0.24969594413829857  0.2889930544132631  1.0000
  C   C45       1.0  0.6408714147732952  0.18619428772497867  0.545579835954395  1.0000
  C   C46       1.0  0.6408714152708881  0.8138057122062512  0.045579835985471426  1.0000
  C   C47       1.0  0.140871415116302  0.6861942878646832  0.5455798362196017  1.0000
  C   C48       1.0  0.14087141561389474  0.31380571206654667  0.04557983625067806  1.0000
  C   C49       1.0  0.4409524304675885  0.19059172920505246  0.46787442941145446  1.0000
  C   C50       1.0  0.44095243258040057  0.8094082707261774  0.9678744293749423  1.0000
  C   C51       1.0  0.9409524327349865  0.6905917293447569  0.46787442914081206  1.0000
  C   C52       1.0  0.9409524322373938  0.3094082705864729  0.9678744291097355  1.0000
  C   C53       1.0  0.9181923045375653  0.21809212881266934  0.6648863464209441  1.0000
  C   C54       1.0  0.918192305035158  0.7819078711185604  0.16488634645202063  1.0000
  C   C55       1.0  0.4181923048805721  0.7180921289523737  0.6648863466861508  1.0000
  C   C56       1.0  0.4181923053781649  0.2819078713270351  0.16488634671722724  1.0000
  C   C57       1.0  0.3586249276930223  0.1519488190959929  0.4201895778725835  1.0000
  C   C58       1.0  0.3586249271954295  0.848051181183416  0.920189577841507  1.0000
  C   C59       1.0  0.8586249273500155  0.6519488188875183  0.42018957760737685  1.0000
  C   C60       1.0  0.8586249268524228  0.3480511810437116  0.9201895775763005  1.0000
  C   C61       1.0  0.23239967455128854  0.166528590255076  0.768942102518746  1.0000
  C   C62       1.0  0.23239967504888132  0.8334714096761539  0.2689421025498223  1.0000
  C   C63       1.0  0.7323996742082818  0.6665285903947805  0.7689421022535392  1.0000
  C   C64       1.0  0.7323996747058745  0.3334714098846285  0.26894210228461574  1.0000
  C   C65       1.0  0.4662359044013838  0.10677920223052642  0.4478676590326096  1.0000
  C   C66       1.0  0.46623590390379105  0.8932207980488824  0.9478676590015332  1.0000
  C   C67       1.0  0.9662359042769487  0.6067792020220518  0.4478676593898702  1.0000
  C   C68       1.0  0.9662359063897608  0.393220797909178  0.947867659353358  1.0000
  C   C69       1.0  0.027437975265131993  0.1718008338189896  0.6920587050894105  1.0000
  C   C70       1.0  0.027437973152319956  0.8281991661122403  0.19205870512592274  1.0000
  C   C71       1.0  0.5274379749221252  0.6718008336105149  0.692058704824204  1.0000
  C   C72       1.0  0.527437975419718  0.3281991663207149  0.19205870485528034  1.0000
  C   C73       1.0  0.6590768927143812  0.10095810027133002  0.5223777594383284  1.0000
  C   C74       1.0  0.6590768932119739  0.8990418996598999  0.022377759469404852  1.0000
  C   C75       1.0  0.15907689305738792  0.6009581004110345  0.5223777597035351  1.0000
  C   C76       1.0  0.15907689094457586  0.39904189952019536  0.02237775974004726  1.0000
  C   C77       1.0  0.01994521883872664  0.2569376502604568  0.7158083115735282  1.0000
  C   C78       1.0  0.019945219336319483  0.743062349670773  0.21580831160460476  1.0000
  C   C79       1.0  0.5199452187142916  0.7569376500519822  0.715808311930789  1.0000
  C   C80       1.0  0.5199452192118843  0.24306234987924769  0.2158083119618654  1.0000
  C   C81       1.0  0.3269555826733873  0.204956386958378  0.8159435427994124  1.0000
  C   C82       1.0  0.32695558317098006  0.7950436129728519  0.3159435428304888  1.0000
  C   C83       1.0  0.8269555823303806  0.7049563867499034  0.8159435425342058  1.0000
  C   C84       1.0  0.8269555828279734  0.29504361318132644  0.31594354256528223  1.0000
  C   C85       1.0  0.7530068984746916  0.14019232782449292  0.5733953581948257  1.0000
  C   C86       1.0  0.7530068989722845  0.8598076721067369  0.07339535822590221  1.0000
  C   C87       1.0  0.2530068988176984  0.6401923279641973  0.5733953584600324  1.0000
  C   C88       1.0  0.2530068993152912  0.35980767196703245  0.07339535849110884  1.0000
  N   N1        1.0  0.3697849815315982  0.6403577092078645  0.24254592752556528  1.0000
  N   N2        1.0  0.3697849836444102  0.35964229072336534  0.7425459274890531  1.0000
  N   N3        1.0  0.8697849837989963  0.14035770906816003  0.24254592725492288  1.0000
  N   N4        1.0  0.8697849833014034  0.8596422908630698  0.7425459272238465  1.0000
  N   N5        1.0  0.7262835468032698  0.22417189128613882  0.5920567802066081  1.0000
  N   N6        1.0  0.7262835473008626  0.775828108645091  0.0920567802376846  1.0000
  N   N7        1.0  0.2262835471462766  0.7241718914258434  0.5920567804718148  1.0000
  N   N8        1.0  0.22628354764386943  0.2758281085053865  0.09205678050289125  1.0000
  N   N9        1.0  0.9441272831949552  0.13387693583983645  0.6458691556248217  1.0000
  N   N10       1.0  0.9441272836925481  0.8661230640913934  0.14586915565589811  1.0000
  N   N11       1.0  0.4441272835379619  0.633876935979541  0.6458691558900282  1.0000
  N   N12       1.0  0.4441272840355547  0.366123064299868  0.14586915592110475  1.0000
  O   O1        1.0  0.1691589475010528  0.4421511996242594  0.3194132776023722  1.0000
  O   O2        1.0  0.16915894722203156  0.5578488003069705  0.819413278193763  1.0000
  O   O3        1.0  0.6691589473766176  0.9421511994157847  0.31941327795963276  1.0000
  O   O4        1.0  0.6691589468790248  0.05784880051544506  0.8194132779285563  1.0000
  O   O5        1.0  0.9492585842818442  0.48017255676414283  0.4303591948748117  1.0000
  O   O6        1.0  0.9492585863946562  0.519827443167087  0.9303591948382994  1.0000
  O   O7        1.0  0.44925858462485097  0.9801725565556682  0.4303591951400184  1.0000
  O   O8        1.0  0.449258586737663  0.01982744337556165  0.9303591951035062  1.0000
  I   I1        1.0  0.5105958906658263  0.311573909785454  0.5355591404743502  1.0000
  I   I2        1.0  0.5105958885530143  0.6884260901457757  0.035559140510862404  1.0000
  I   I3        1.0  0.010595888179856695  0.8115739099251584  0.5355591401225254  1.0000
  I   I4        1.0  0.01059588867744946  0.18842609000607133  0.03555914015360178  1.0000
