data_image0
_chemical_formula_structural       H138C106N6O20
_chemical_formula_sum              "H138 C106 N6 O20"
_cell_length_a       17.501010311940323
_cell_length_b       5.692442312021249
_cell_length_c       25.261770051302197
_cell_angle_alpha    90.0
_cell_angle_beta     107.17903566779015
_cell_angle_gamma    90.0

_space_group_name_H-M_alt    "P 1"
_space_group_IT_number       1

loop_
  _space_group_symop_operation_xyz
  'x, y, z'

loop_
  _atom_site_type_symbol
  _atom_site_label
  _atom_site_symmetry_multiplicity
  _atom_site_fract_x
  _atom_site_fract_y
  _atom_site_fract_z
  _atom_site_occupancy
  H   H1        1.0  0.5261845720589742  0.08193369110040075  0.48218450225492787  1.0000
  H   H2        1.0  0.4738154281292067  0.5819336900445052  0.5178154978025719  1.0000
  H   H3        1.0  0.5175934350971367  0.8830996300804033  0.43061449105194877  1.0000
  H   H4        1.0  0.482406565091044  0.38309962937958353  0.569385509005551  1.0000
  H   H5        1.0  0.43820746004819994  0.05145472785581857  0.43506535249211  1.0000
  H   H6        1.0  0.5617925401399808  0.551454726799923  0.5649346475653898  1.0000
  H   H7        1.0  0.585196692740769  0.1953790480496043  0.4060917224393955  1.0000
  H   H8        1.0  0.4148033068764406  0.695379048750424  0.5939082776190958  1.0000
  H   H9        1.0  0.48276216050938153  0.9984542641736278  0.3322667138498826  1.0000
  H   H10       1.0  0.5172378389298137  0.4984542634728081  0.6677332857942697  1.0000
  H   H11       1.0  0.40669958244533205  0.1849397257442194  0.34173917306993995  1.0000
  H   H12       1.0  0.5933004177428487  0.6849397264450392  0.6582608269875598  1.0000
  H   H13       1.0  0.6018790044379396  0.21474575814646163  0.30625881966125296  1.0000
  H   H14       1.0  0.3981209957502411  0.7147457588472813  0.6937411803962468  1.0000
  H   H15       1.0  0.3717422586009305  0.5292522690370928  0.2885439648504486  1.0000
  H   H16       1.0  0.6282577415872502  0.029252268336273028  0.7114560352070511  1.0000
  H   H17       1.0  0.5332112599303703  0.8443935724828227  0.20932199742414592  1.0000
  H   H18       1.0  0.46678874025781036  0.34439357178200286  0.7906780026333536  1.0000
  H   H19       1.0  0.4005011182000477  0.838397726037805  0.22895068646900008  1.0000
  H   H20       1.0  0.5994988819881332  0.33839772709370053  0.7710493135884997  1.0000
  H   H21       1.0  0.6324522612126674  0.5300504361068591  0.24787590169109253  1.0000
  H   H22       1.0  0.36754773879749897  0.03005043540603938  0.7521240979520681  1.0000
  H   H23       1.0  0.8433568394414072  0.7203145407975272  0.5326566639461215  1.0000
  H   H24       1.0  0.1566431607467736  0.22031454185342275  0.4673433361113781  1.0000
  H   H25       1.0  0.8182314823094775  0.42613441595663293  0.5097120659166936  1.0000
  H   H26       1.0  0.1817685173077322  0.9261344166574527  0.49028793414179783  1.0000
  H   H27       1.0  0.6988393356947433  0.6443202423421079  0.4892298769358821  1.0000
  H   H28       1.0  0.3011606644934376  0.14432024339800342  0.5107701231216177  1.0000
  H   H29       1.0  0.7148637848226197  0.37753618257343496  0.4155285077360145  1.0000
  H   H30       1.0  0.2851362147945899  0.8775361832742546  0.5844714923224769  1.0000
  H   H31       1.0  0.7307350234383794  0.6129081857592266  0.3789786572076305  1.0000
  H   H32       1.0  0.2692649767498015  0.11290818681512198  0.6210213428498692  1.0000
  H   H33       1.0  0.6441769430303727  0.5873368453711825  0.3974291204356275  1.0000
  H   H34       1.0  0.3558230571578082  0.08733684467036269  0.6025708796218723  1.0000
  H   H35       1.0  0.021125917766070965  0.6405723853010368  0.36793676723854907  1.0000
  H   H36       1.0  0.9788740818511386  0.1405723846002171  0.6320632328199423  1.0000
  H   H37       1.0  0.8511732186579621  0.2670168860192265  0.42896794939310423  1.0000
  H   H38       1.0  0.14882678153021872  0.7670168867200463  0.5710320506643956  1.0000
  H   H39       1.0  0.9377694204365971  0.2833628839054942  0.3678773882857927  1.0000
  H   H40       1.0  0.062230579751583665  0.7833628828495988  0.632122611771707  1.0000
  H   H41       1.0  0.9277528433767648  0.9605252104976607  0.4901151500020445  1.0000
  H   H42       1.0  0.07224715681141601  0.460525209796841  0.5098848500554553  1.0000
  H   H43       1.0  0.016672797027382353  0.9752307420448528  0.4302928765978335  1.0000
  H   H44       1.0  0.9833272031607986  0.4752307413440332  0.5697071234596663  1.0000
  H   H45       1.0  0.9998858148797835  0.85842281083476  0.7015914470975446  1.0000
  H   H46       1.0  0.00011418455941158459  0.35842281013394034  0.29840855254660764  1.0000
  H   H47       1.0  0.7351380920288102  0.19797977532772462  0.6722059391484502  1.0000
  H   H48       1.0  0.26486190815937055  0.6979797760285443  0.3277940609090496  1.0000
  H   H49       1.0  0.9117371404718011  0.610317210007245  0.6273277694444864  1.0000
  H   H50       1.0  0.08826285971637969  0.11031720930642537  0.3726722306130133  1.0000
  H   H51       1.0  0.850981075410917  0.017865270199618387  0.6477295103212254  1.0000
  H   H52       1.0  0.14901892402827815  0.5178652709004381  0.35227048932292687  1.0000
  H   H53       1.0  0.8456399466284898  0.2439349322991992  0.5986783309180783  1.0000
  H   H54       1.0  0.15436005355969099  0.7439349312433037  0.4013216691394216  1.0000
  H   H55       1.0  0.8788274021673392  0.1299187447957469  0.7502272087734215  1.0000
  H   H56       1.0  0.12117259802084156  0.6299187454965666  0.2497727912840781  1.0000
  H   H57       1.0  0.9661760806924126  0.38122507195500227  0.824621274968078  1.0000
  H   H58       1.0  0.03382391892479701  0.8812250708991067  0.1753787250904135  1.0000
  H   H59       1.0  0.02602929220332863  0.7457597595736783  0.8002167387094037  1.0000
  H   H60       1.0  0.973970707413881  0.24575975887285867  0.19978326134908767  1.0000
  H   H61       1.0  0.7209165239903377  0.05214923116095548  0.555870637378994  1.0000
  H   H62       1.0  0.2790834760198287  0.5521492318617752  0.44412936226416666  1.0000
  H   H63       1.0  0.6414849623357017  0.06858842981605302  0.5802242619001704  1.0000
  H   H64       1.0  0.3585150378524791  0.5685884305168728  0.41977573815732927  1.0000
  H   H65       1.0  0.7163103919545881  0.878636533467839  0.610736855331377  1.0000
  H   H66       1.0  0.2836896076626215  0.3786365345237344  0.3892631447271144  1.0000
  H   H67       1.0  0.41594661618178436  0.7819905386831058  0.849421720373147  1.0000
  H   H68       1.0  0.5840533834354252  0.281990537982286  0.15057827968534446  1.0000
  H   H69       1.0  0.2570697096823417  0.050625740974382015  0.8365694709298374  1.0000
  H   H70       1.0  0.7429302905058389  0.5506257416752017  0.16343052912766237  1.0000
  H   H71       1.0  0.24586805731266453  0.5200942737263788  0.6415046874971806  1.0000
  H   H72       1.0  0.754131942304545  0.020094273025559127  0.3584953125613108  1.0000
  H   H73       1.0  0.1564730671250977  0.5202817521304631  0.744869057478229  1.0000
  H   H74       1.0  0.8435269324921119  0.02028175142964348  0.25513094258026237  1.0000
  H   H75       1.0  0.2938993168478336  0.7251323867231826  0.7706348135552304  1.0000
  H   H76       1.0  0.706100682769376  0.225132386022363  0.22936518650326093  1.0000
  H   H77       1.0  0.3775196288164762  0.11104747757655281  0.9154224505592907  1.0000
  H   H78       1.0  0.6224803713717045  0.6110474782773725  0.08457754949820905  1.0000
  H   H79       1.0  0.4757440801077145  0.3851390474999014  0.9722169021561797  1.0000
  H   H80       1.0  0.524255919509495  0.8851390482007212  0.027783097902311576  1.0000
  H   H81       1.0  0.4852573816119678  0.6721802506315355  0.9480393315312908  1.0000
  H   H82       1.0  0.514742618576213  0.17218024993071576  0.0519606685262088  1.0000
  H   H83       1.0  0.1663184084213315  0.981751331620546  0.7521114832813912  1.0000
  H   H84       1.0  0.8336815911958781  0.4817513309197263  0.24788851677710017  1.0000
  H   H85       1.0  0.08159152095252067  0.15796916871709238  0.7197709639012491  1.0000
  H   H86       1.0  0.9184084792356602  0.6579691694179121  0.28022903615625067  1.0000
  H   H87       1.0  0.1220392062026178  0.16242216597390594  0.7929570432081912  1.0000
  H   H88       1.0  0.8779607939855629  0.6624221649180104  0.2070429568493086  1.0000
  H   H89       1.0  0.5604574439792791  0.04878845226301229  0.9491776752360637  1.0000
  H   H90       1.0  0.4395425560308873  0.548788452963832  0.050822324407097004  1.0000
  H   H91       1.0  0.6167986934751221  0.10498564890819209  0.9024424637841143  1.0000
  H   H92       1.0  0.3832013065350443  0.6049856496090118  0.09755753585904642  1.0000
  H   H93       1.0  0.5112524321741573  0.09320840351416801  0.8773689214562258  1.0000
  H   H94       1.0  0.4887475680140236  0.5932084024582726  0.12263107860127387  1.0000
  H   H95       1.0  0.5605867151412328  0.5100802275796803  0.8861540919131706  1.0000
  H   H96       1.0  0.4394132844759768  0.010080226878860605  0.11384590814532061  1.0000
  H   H97       1.0  0.630179678626774  0.6755117187361751  0.9802994250027395  1.0000
  H   H98       1.0  0.3698203215614067  0.17551171803535542  0.019700575054760215  1.0000
  H   H99       1.0  0.6871812143159711  0.4472390408987771  0.9626521819358396  1.0000
  H   H100      1.0  0.3128187858722096  0.9472390398428815  0.037347818121660145  1.0000
  H   H101      1.0  0.6315619158420718  0.39055621790053574  0.009620213501259394  1.0000
  H   H102      1.0  0.36843808434610903  0.8905562186013554  0.9903797865562404  1.0000
  H   H103      1.0  0.9708589616027721  0.3783716921384517  0.9560115671126179  1.0000
  H   H104      1.0  0.029141038585408705  0.8783716910825563  0.04398843294488192  1.0000
  H   H105      1.0  0.026121540574467517  0.06439721826005422  0.9066563795469997  1.0000
  H   H106      1.0  0.9738784596137133  0.5643972189608739  0.09334362051050006  1.0000
  H   H107      1.0  0.11838956884662515  0.8112333260273824  0.8693720627663831  1.0000
  H   H108      1.0  0.8816104313415556  0.31123332708327794  0.13062793729111663  1.0000
  H   H109      1.0  0.20074102809634356  0.6256075169140347  0.8708730338561865  1.0000
  H   H110      1.0  0.7992589719138229  0.12560751621321498  0.12912696578697408  1.0000
  H   H111      1.0  0.2108709242187621  0.8505941517887317  0.9214458541562418  1.0000
  H   H112      1.0  0.7891290757914043  0.35059415108791186  0.07855414548691898  1.0000
  H   H113      1.0  0.8304903031062899  0.4234754746498346  0.8988335957250864  1.0000
  H   H114      1.0  0.16950969633290536  0.9234754753506543  0.10116640391906599  1.0000
  H   H115      1.0  0.7535865405712051  0.9866047141382144  0.8207350540323177  1.0000
  H   H116      1.0  0.24641345961697567  0.48660471343739464  0.17926494602518198  1.0000
  H   H117      1.0  0.0955377973523398  0.5661023675540361  0.004816632176115918  1.0000
  H   H118      1.0  0.9044622022648698  0.06610236685321642  0.9951833678823754  1.0000
  H   H119      1.0  0.1243875691245585  0.8413722225846111  0.9842021386237108  1.0000
  H   H120      1.0  0.8756124308856078  0.3413722218837914  0.01579786101944989  1.0000
  H   H121      1.0  0.1051507428397655  0.4117110655738608  0.9095671439884198  1.0000
  H   H122      1.0  0.8948492567774441  0.9117110645179654  0.0904328560700715  1.0000
  H   H123      1.0  0.8851557512825153  0.11007376195570326  0.8489620319545677  1.0000
  H   H124      1.0  0.11484424890566543  0.6100737608998078  0.15103796810293202  1.0000
  H   H125      1.0  0.7740843467873194  0.6966960405773185  0.707664866656118  1.0000
  H   H126      1.0  0.2259156534008613  0.19669604163321394  0.2923351334013816  1.0000
  H   H127      1.0  0.701428042669593  0.5292863774196388  0.8654357858287111  1.0000
  H   H128      1.0  0.2985719575185877  0.02928637671881912  0.1345642142287887  1.0000
  H   H129      1.0  0.6387312854745703  0.7617107565312143  0.8313939557631634  1.0000
  H   H130      1.0  0.36126871471361055  0.2617107575871099  0.16860604429433623  1.0000
  H   H131      1.0  0.7071749879447408  0.8071156171925471  0.8986076671194438  1.0000
  H   H132      1.0  0.29282501149445445  0.3071156182484427  0.10139233252470843  1.0000
  H   H133      1.0  0.25045016734528186  0.32896903602261923  0.9500555109215414  1.0000
  H   H134      1.0  0.749549832842899  0.8289690349667238  0.049944489135958364  1.0000
  H   H135      1.0  0.19917460844133947  0.2973922259036291  0.0010724834360068506  1.0000
  H   H136      1.0  0.8008253915688269  0.7973922266044489  0.9989275162071538  1.0000
  H   H137      1.0  0.25787088738844766  0.5518534519649031  0.0004904302526082051  1.0000
  H   H138      1.0  0.742129112799733  0.051853451264083396  0.9995095698048915  1.0000
  C   C1        1.0  0.5111498049208705  0.47491461692829695  0.4219272930864535  1.0000
  C   C2        1.0  0.48885019526731044  0.9749146158724015  0.5780727069710463  1.0000
  C   C3        1.0  0.522059772059593  0.22524622819492773  0.4031413793406557  1.0000
  C   C4        1.0  0.4779402275576167  0.7252462271390323  0.5968586207178357  1.0000
  C   C5        1.0  0.4853261522289655  0.3531696695027475  0.3024861709795798  1.0000
  C   C6        1.0  0.514673847781201  0.8531696702035673  0.6975138286635808  1.0000
  C   C7        1.0  0.4700490548337082  0.17870285270204123  0.34297220686222735  1.0000
  C   C8        1.0  0.5299509453544726  0.6787028516461457  0.6570277931952724  1.0000
  C   C9        1.0  0.5579389106303666  0.35249968467181714  0.28955072714372876  1.0000
  C   C10       1.0  0.4420610895578143  0.8524996836159218  0.710449272913771  1.0000
  C   C11       1.0  0.42910684993530107  0.5284518199942667  0.27961745965699064  1.0000
  C   C12       1.0  0.5708931496819085  0.028451819293446964  0.7203825404015007  1.0000
  C   C13       1.0  0.5190304317820986  0.7056458879727697  0.23464866239214263  1.0000
  C   C14       1.0  0.48096956765709653  0.20564588727195  0.7653513372520097  1.0000
  C   C15       1.0  0.4454241387746238  0.7035688374991915  0.2456961006404183  1.0000
  C   C16       1.0  0.554575861413557  0.20356883679837182  0.7543038994170814  1.0000
  C   C17       1.0  0.5748667983958317  0.5284134340101806  0.2562018959513895  1.0000
  C   C18       1.0  0.4251332017923491  0.028413435066076128  0.7437981041061101  1.0000
  C   C19       1.0  0.8234823886939117  0.606819602318195  0.49598822261164127  1.0000
  C   C20       1.0  0.17651761149426912  0.10681960161737522  0.5040117774458585  1.0000
  C   C21       1.0  0.7383382068137064  0.68794225665319  0.4638313757488341  1.0000
  C   C22       1.0  0.2616617933744744  0.18794225595237027  0.5361686243086656  1.0000
  C   C23       1.0  0.9828866263617189  0.6310701932655072  0.3948949153092852  1.0000
  C   C24       1.0  0.017113373826461893  0.13107019256468752  0.6051050847482146  1.0000
  C   C25       1.0  0.8866827606727051  0.42396760260589383  0.4287391989569613  1.0000
  C   C26       1.0  0.11331723951547566  0.9239676015499984  0.5712608011005385  1.0000
  C   C27       1.0  0.7327795386252015  0.9554229840001405  0.4548630273397958  1.0000
  C   C28       1.0  0.26722046156297913  0.4554229832993208  0.5451369727177039  1.0000
  C   C29       1.0  0.9364891430748141  0.431783035343095  0.39482973420995526  1.0000
  C   C30       1.0  0.06351085711336665  0.9317830342871996  0.6051702658475444  1.0000
  C   C31       1.0  0.8814411962068378  0.6151586556450516  0.46241135276399337  1.0000
  C   C32       1.0  0.11855880398134291  0.11515865494423179  0.5375886472935063  1.0000
  C   C33       1.0  0.9292576334106682  0.8128629218127293  0.46290577550759593  1.0000
  C   C34       1.0  0.07074236677751247  0.31286292286862477  0.5370942245499037  1.0000
  C   C35       1.0  0.9798732638433357  0.8202420760838747  0.4293996210368321  1.0000
  C   C36       1.0  0.020126736344845093  0.32024207538305494  0.5706003790206676  1.0000
  C   C37       1.0  0.889701624120157  0.3535138679842784  0.683816588591103  1.0000
  C   C38       1.0  0.1102983760680238  0.8535138669283829  0.3161834114663968  1.0000
  C   C39       1.0  0.712672117139999  0.4702355901520831  0.6113972842269493  1.0000
  C   C40       1.0  0.2873278824772106  0.9702355890961877  0.3886027158315421  1.0000
  C   C41       1.0  0.9737097835015485  0.6982655549457175  0.7122277426826016  1.0000
  C   C42       1.0  0.02629021611566113  0.19826555424489778  0.28777225737588974  1.0000
  C   C43       1.0  0.7459053269788165  0.22857601512311  0.6319406124990956  1.0000
  C   C44       1.0  0.2540946730313499  0.7285760158239297  0.36805938714406505  1.0000
  C   C45       1.0  0.9243650169193076  0.558629689278462  0.6706713558627629  1.0000
  C   C46       1.0  0.07563498269790195  0.05862968857764231  0.3293286441957285  1.0000
  C   C47       1.0  0.8360747685263124  0.20442094380870668  0.6388534741306866  1.0000
  C   C48       1.0  0.16392523109089732  0.7044209427528112  0.3611465259278047  1.0000
  C   C49       1.0  0.9057002454868921  0.2894724706335942  0.7396291878689903  1.0000
  C   C50       1.0  0.09429975470128871  0.789472471334414  0.2603708121885094  1.0000
  C   C51       1.0  0.9548536758292454  0.4297327642362006  0.7812538910600997  1.0000
  C   C52       1.0  0.0451463243589354  0.9297327649370203  0.21874610899740005  1.0000
  C   C53       1.0  0.9887415580013681  0.634660119852351  0.7676878493569961  1.0000
  C   C54       1.0  0.011258442008798383  0.13466011915153137  0.2323121502861646  1.0000
  C   C55       1.0  0.38107702255152054  0.6210945172924578  0.8467770122834396  1.0000
  C   C56       1.0  0.6189229774586459  0.12109451659163814  0.15322298735972115  1.0000
  C   C57       1.0  0.2661876297096347  0.38447829245069215  0.7978468489125196  1.0000
  C   C58       1.0  0.733812370478546  0.8844782931515118  0.20215315114498023  1.0000
  C   C59       1.0  0.21828300115755803  0.3341834006789491  0.6973353070467505  1.0000
  C   C60       1.0  0.7817169988526084  0.8341833996230535  0.30266469259641027  1.0000
  C   C61       1.0  0.29122701036784254  0.212173287632518  0.838797044745057  1.0000
  C   C62       1.0  0.7087729890713527  0.7121732883333376  0.1612029548990953  1.0000
  C   C63       1.0  0.19080069258333393  0.35583551821375736  0.7490203074232118  1.0000
  C   C64       1.0  0.8091993070338757  0.8558355171578619  0.25097969263527947  1.0000
  C   C65       1.0  0.31242948229159695  0.589257708052023  0.8023382489008573  1.0000
  C   C66       1.0  0.6875705173256126  0.08925770735120336  0.19766175115763418  1.0000
  C   C67       1.0  0.35976200704747835  0.24603784162069028  0.8834913174330347  1.0000
  C   C68       1.0  0.6402379931407025  0.74603784232151  0.11650868262446502  1.0000
  C   C69       1.0  0.4805007905694578  0.48550854246929853  0.9360303989347476  1.0000
  C   C70       1.0  0.519499209618723  0.9855085414134029  0.0639696011227522  1.0000
  C   C71       1.0  0.40584136317375913  0.45040848013260104  0.8884470407687599  1.0000
  C   C72       1.0  0.5941586370144217  0.9504084808334208  0.11155295928873986  1.0000
  C   C73       1.0  0.13728979003606168  0.15100639284208725  0.7539514288330625  1.0000
  C   C74       1.0  0.8627102101521191  0.651006393542907  0.2460485712244371  1.0000
  C   C75       1.0  0.5615871810517428  0.15050826746029602  0.9123536344587683  1.0000
  C   C76       1.0  0.438412819136438  0.6505082681611157  0.08764636559873143  1.0000
  C   C77       1.0  0.5585618689156063  0.41360478876139933  0.9236323829919764  1.0000
  C   C78       1.0  0.4414381312725744  0.9136047877055039  0.07636761706552334  1.0000
  C   C79       1.0  0.6307982328623346  0.48662873300448123  0.9716340341703686  1.0000
  C   C80       1.0  0.3692017671478317  0.9866287319485858  0.028365965472791996  1.0000
  C   C81       1.0  0.9522341950700572  0.5391004900514036  0.9322254094535515  1.0000
  C   C82       1.0  0.04776580511812348  0.03910049110729911  0.0677745906039482  1.0000
  C   C83       1.0  0.00930867278457606  0.7155246600213233  0.9349903037714008  1.0000
  C   C84       1.0  0.9906913274036047  0.21552465932050371  0.06500969628609896  1.0000
  C   C85       1.0  0.847732378448194  0.7708420128796943  0.8693400846049202  1.0000
  C   C86       1.0  0.15226762173998679  0.2708420139355898  0.1306599154525796  1.0000
  C   C87       1.0  0.9836138957652834  0.9217625497792508  0.904615230292503  1.0000
  C   C88       1.0  0.016386104422897403  0.4217625490784312  0.09538476976499673  1.0000
  C   C89       1.0  0.16980986157117697  0.7176773107340276  0.8968222368171186  1.0000
  C   C90       1.0  0.8301901386170039  0.2176773100332079  0.10317776324038105  1.0000
  C   C91       1.0  0.8729003048751723  0.5653549291494318  0.9001187265129509  1.0000
  C   C92       1.0  0.1270996947420372  0.06535492844861197  0.09988127354554042  1.0000
  C   C93       1.0  0.7623335369170929  0.8000367804136652  0.8323004266759045  1.0000
  C   C94       1.0  0.2376664627001167  0.3000367797128454  0.16769957338258687  1.0000
  C   C95       1.0  0.09497026060719488  0.6736374898173384  0.9684452935175206  1.0000
  C   C96       1.0  0.9050297395809859  0.1736374891165187  0.03155470653997911  1.0000
  C   C97       1.0  0.14424000264608333  0.5472070210394383  0.9352409976865537  1.0000
  C   C98       1.0  0.8557599975420975  0.047207020338618566  0.06475900237094603  1.0000
  C   C99       1.0  0.9042096604877707  0.9483445477523267  0.8722679645673053  1.0000
  C   C100      1.0  0.09579033912943885  0.448344547051507  0.12773203549118603  1.0000
  C   C101      1.0  0.7549784132633598  0.6649635398159957  0.7787451244910889  1.0000
  C   C102      1.0  0.24502158635384977  0.1649635408718912  0.2212548755674024  1.0000
  C   C103      1.0  0.6987202461827944  0.7196367860152166  0.8586324755048906  1.0000
  C   C104      1.0  0.30127975325640066  0.21963678707111212  0.14136752413926168  1.0000
  C   C105      1.0  0.21695052485789212  0.42367389914640163  0.9739428909388469  1.0000
  C   C106      1.0  0.7830494753302887  0.9236738998472214  0.026057109118652867  1.0000
  N   N1        1.0  0.4998769361412659  0.0523879810552021  0.4400311527933958  1.0000
  N   N2        1.0  0.500123064046915  0.5523879817560218  0.5599688472641041  1.0000
  N   N3        1.0  0.7062434074487905  0.5589384003560058  0.4103994992779087  1.0000
  N   N4        1.0  0.29375659273939037  0.05893840141190132  0.589600500779591  1.0000
  N   N5        1.0  0.7032590735317371  0.04774948169891711  0.5922281154206908  1.0000
  N   N6        1.0  0.29674092665644364  0.5477494823997369  0.4077718846368091  1.0000
  O   O1        1.0  0.5530883895760741  0.6372417410958313  0.41008533984861445  1.0000
  O   O2        1.0  0.44691160986312106  0.13724174215172685  0.5899146597955378  1.0000
  O   O3        1.0  0.4591649276791208  0.5062472805239108  0.4471727508898677  1.0000
  O   O4        1.0  0.54083507250906  0.006247279823091031  0.552827249167632  1.0000
  O   O5        1.0  0.7129356537107007  0.03951242501395426  0.4056422809043785  1.0000
  O   O6        1.0  0.2870643459065089  0.5395124239580588  0.5943577191541128  1.0000
  O   O7        1.0  0.7471539826751044  0.08079474763033545  0.49772266099805523  1.0000
  O   O8        1.0  0.2528460175130765  0.5807947483311552  0.5022773390594445  1.0000
  O   O9        1.0  0.6600339115907337  0.4892096515618769  0.5651569984854157  1.0000
  O   O10       1.0  0.33996608859744715  0.9892096522626966  0.434843001572084  1.0000
  O   O11       1.0  0.7415687734252245  0.6421915461980275  0.6435682411466749  1.0000
  O   O12       1.0  0.25843122619198505  0.14219154549720778  0.3564317589118164  1.0000
  O   O13       1.0  0.22021906773138172  0.5394007601123562  0.6726753866708418  1.0000
  O   O14       1.0  0.7797809317078135  0.039400759411536534  0.32732461297331056  1.0000
  O   O15       1.0  0.2394995983531662  0.14629020099885934  0.6815611988025616  1.0000
  O   O16       1.0  0.7605004012640434  0.6462902016996791  0.31843880125592966  1.0000
  O   O17       1.0  0.7280418879275016  0.46467909291131104  0.7693904481659735  1.0000
  O   O18       1.0  0.2719581120826648  0.9646790918554156  0.23060955147718729  1.0000
  O   O19       1.0  0.7825620981811222  0.7893645405085359  0.7433225176409785  1.0000
  O   O20       1.0  0.2174379020070586  0.2893645415644313  0.2566774824165214  1.0000
