data_image0
_chemical_formula_structural       H32C52N4O8F12
_chemical_formula_sum              "H32 C52 N4 O8 F12"
_cell_length_a       6.815053116213608
_cell_length_b       7.177972702659167
_cell_length_c       22.55504251065497
_cell_angle_alpha    90.0
_cell_angle_beta     96.0084915253832
_cell_angle_gamma    90.0

_space_group_name_H-M_alt    "P 1"
_space_group_IT_number       1

loop_
  _space_group_symop_operation_xyz
  'x, y, z'

loop_
  _atom_site_type_symbol
  _atom_site_label
  _atom_site_symmetry_multiplicity
  _atom_site_fract_x
  _atom_site_fract_y
  _atom_site_fract_z
  _atom_site_occupancy
  H   H1        1.0  0.659936046356469  0.8350598571905179  0.14692980533753394  1.0000
  H   H2        1.0  0.8400639534826841  0.335059857375749  0.3530701944706285  1.0000
  H   H3        1.0  0.3400639530012214  0.16494014243901994  0.8530701944314645  1.0000
  H   H4        1.0  0.15993604587500626  0.664940142253789  0.64692980529837  1.0000
  H   H5        1.0  0.1643599916015168  0.19578961333739298  0.24664697638401445  1.0000
  H   H6        1.0  0.33564000807732836  0.6957896131521619  0.2533530235004848  1.0000
  H   H7        1.0  0.8356400077561736  0.804210387685296  0.7533530233849839  1.0000
  H   H8        1.0  0.6643599912803618  0.30421038647737597  0.7466469762685137  1.0000
  H   H9        1.0  0.7928885613858897  0.2645143996293845  0.1291378343058098  1.0000
  H   H10       1.0  0.7071114399321536  0.7645143994441534  0.3708621659914493  1.0000
  H   H11       1.0  0.2071114394506909  0.7354856000001534  0.8708621659522853  1.0000
  H   H12       1.0  0.29288856090442705  0.23548560018538442  0.6291378342666458  1.0000
  H   H13       1.0  0.1866747149813904  0.544517212854827  0.1098745406113699  1.0000
  H   H14       1.0  0.3133252847009036  0.04451721304005814  0.390125459716597  1.0000
  H   H15       1.0  0.8133252843797487  0.45548278677471077  0.8901254596010961  1.0000
  H   H16       1.0  0.6866747146602356  0.9554827865894797  0.6098745404958692  1.0000
  H   H17       1.0  0.5154767264285622  0.47475987317944723  0.16366841354630288  1.0000
  H   H18       1.0  0.9845232734140396  0.9747598729942162  0.3363315867053272  1.0000
  H   H19       1.0  0.4845232729325769  0.5252401264500907  0.8363315866661633  1.0000
  H   H20       1.0  0.015476727422541029  0.025240126635321738  0.6636684135527678  1.0000
  H   H21       1.0  0.3501131418281639  0.20510029934421511  0.964770370706575  1.0000
  H   H22       1.0  0.14988685704806382  0.7051002991589841  0.5352296290232595  1.0000
  H   H23       1.0  0.6498868575295265  0.7948997002853228  0.03522962906242345  1.0000
  H   H24       1.0  0.8501131423096265  0.29489970047055386  0.46477037074573896  1.0000
  H   H25       1.0  0.6756194220407303  0.14809946541119873  0.025733706201413895  1.0000
  H   H26       1.0  0.8243805777984227  0.6480994652259676  0.4742662936067485  1.0000
  H   H27       1.0  0.3243805773169599  0.8519005342183391  0.9742662935675847  1.0000
  H   H28       1.0  0.17561942303470926  0.3519005344035702  0.5257337062078788  1.0000
  H   H29       1.0  0.01963570228513938  0.33091969953020706  0.9581861437713509  1.0000
  H   H30       1.0  0.4803642980699786  0.830919699344976  0.5418138564475802  1.0000
  H   H31       1.0  0.9803642970725509  0.6690803014924819  0.04181385599764748  1.0000
  H   H32       1.0  0.519635702766602  0.16908030028456186  0.4581861438105149  1.0000
  C   C1        1.0  0.4569943341907032  0.08210626515501594  0.25396540496172004  1.0000
  C   C2        1.0  0.04300566549159075  0.5821062649697849  0.24603459536624686  1.0000
  C   C3        1.0  0.5430056651704359  0.9178937344745219  0.7460345952507461  1.0000
  C   C4        1.0  0.9569943338695484  0.417893734659753  0.7539654048462192  1.0000
  C   C5        1.0  0.21713187739293682  0.04221168323581839  0.16757336742917012  1.0000
  C   C6        1.0  0.28286812228590835  0.5422116830505873  0.3324266324553291  1.0000
  C   C7        1.0  0.7828681219647535  0.9577883177868705  0.8324266323398283  1.0000
  C   C8        1.0  0.7171318770752309  0.4577883165789505  0.667573367757137  1.0000
  C   C9        1.0  0.5486439014595065  0.9079419370856107  0.16932088402679682  1.0000
  C   C10       1.0  0.9513560983796465  0.4079419372708417  0.3306791157813656  1.0000
  C   C11       1.0  0.45135609937362536  0.09205806254392723  0.8306791157878305  1.0000
  C   C12       1.0  0.04864390097804386  0.5920580623586961  0.6693208839876328  1.0000
  C   C13       1.0  0.36003007330954934  0.9403269181421536  0.14126165972002508  1.0000
  C   C14       1.0  0.13996992636929584  0.44032691832738474  0.35873834016447415  1.0000
  C   C15       1.0  0.6399699275270313  0.05967308148738422  0.8587383405380701  1.0000
  C   C16       1.0  0.8600300729883945  0.5596730813021531  0.6412616596045243  1.0000
  C   C17       1.0  0.2706598900419243  0.11355035798590467  0.225043979619994  1.0000
  C   C18       1.0  0.22934010963692084  0.6135503578006737  0.2749560202645052  1.0000
  C   C19       1.0  0.7293401107912075  0.8864496416436333  0.7749560201946335  1.0000
  C   C20       1.0  0.7706598897242183  0.38644964182886427  0.7250439799479609  1.0000
  C   C21       1.0  0.5955677154950926  0.9805698491152663  0.2259387472105669  1.0000
  C   C22       1.0  0.904432285819502  0.4805698493004974  0.27406125264322445  1.0000
  C   C23       1.0  0.40443228533803927  0.019430150514271525  0.7740612526040604  1.0000
  C   C24       1.0  0.09556771501362989  0.5194301503290405  0.7259387471714028  1.0000
  C   C25       1.0  0.01639033070979005  0.08039803770585643  0.13591729713870052  1.0000
  C   C26       1.0  0.4836096704444966  0.5803980375206255  0.3640827027914277  1.0000
  C   C27       1.0  0.9836096701233417  0.9196019619236815  0.8640827026759269  1.0000
  C   C28       1.0  0.5163903303886352  0.4196019621089125  0.6359172970231997  1.0000
  C   C29       1.0  0.24302955886626498  0.3857836431969346  0.031281848064706144  1.0000
  C   C30       1.0  0.2569704408125802  0.8857836430117034  0.4687181518197931  1.0000
  C   C31       1.0  0.7569704404914254  0.6142163578257543  0.9687181517042923  1.0000
  C   C32       1.0  0.7430295585451102  0.11421635661783439  0.5312818479492054  1.0000
  C   C33       1.0  0.29128766796733513  0.45948494465270856  0.08871355042065761  1.0000
  C   C34       1.0  0.2087123331869515  0.9594849458606285  0.4112864495094705  1.0000
  C   C35       1.0  0.7087123328657967  0.5405150549768294  0.9112864493939697  1.0000
  C   C36       1.0  0.7912876676461803  0.04051505516206041  0.5887135503051568  1.0000
  C   C37       1.0  0.05858100629062243  0.4267698216329449  0.9952250323984534  1.0000
  C   C38       1.0  0.4414189925856053  0.9267698214477139  0.504774967331381  1.0000
  C   C39       1.0  0.9414189930670679  0.5732301793897441  0.00477496737054506  1.0000
  C   C40       1.0  0.5585810067720851  0.07323017818182406  0.4952250324376174  1.0000
  C   C41       1.0  0.4735900094133294  0.4201748634238585  0.11909672513022432  1.0000
  C   C42       1.0  0.02640999026551576  0.9201748632386274  0.3809032747542749  1.0000
  C   C43       1.0  0.526409989944361  0.5798251362056793  0.8809032746387742  1.0000
  C   C44       1.0  0.973590010567616  0.07982513639091043  0.6190967250603524  1.0000
  C   C45       1.0  0.382772524814946  0.26918096376769485  0.008416286549781021  1.0000
  C   C46       1.0  0.117227474867348  0.7691809635824638  0.49158371377818594  1.0000
  C   C47       1.0  0.6172274745461932  0.730819035861843  0.9915837136626852  1.0000
  C   C48       1.0  0.8827725259692326  0.23081903604707407  0.5084162864799092  1.0000
  C   C49       1.0  0.5625569839434255  0.23697038432172585  0.04169511783908072  1.0000
  C   C50       1.0  0.9374430173746178  0.7369703841364947  0.4583048824581783  1.0000
  C   C51       1.0  0.43744301689315523  0.763029615307812  0.9583048824190143  1.0000
  C   C52       1.0  0.0625569834619628  0.2630296154930431  0.5416951177999167  1.0000
  N   N1        1.0  0.6078922909140525  0.31186509795038625  0.09604566113541274  1.0000
  N   N2        1.0  0.8921077089285493  0.8118650991583063  0.4039543391162174  1.0000
  N   N3        1.0  0.39210770844708664  0.6881349016791517  0.9039543390770534  1.0000
  N   N4        1.0  0.10789229043258987  0.18813490186438267  0.5960456610962488  1.0000
  O   O1        1.0  0.9380621089618286  0.9773866968595416  0.09626785854761559  1.0000
  O   O2        1.0  0.5619378908773243  0.4773866956516217  0.40373214126054685  1.0000
  O   O3        1.0  0.06193789039586164  0.022613304163147267  0.9037321412213829  1.0000
  O   O4        1.0  0.4380621099558075  0.5226133039779162  0.5962678585540806  1.0000
  O   O5        1.0  0.9363743725894325  0.23341051009839067  0.15512582053972807  1.0000
  O   O6        1.0  0.5636256272531693  0.7334105099131596  0.34487417971190204  1.0000
  O   O7        1.0  0.06362562677170666  0.7665894909242982  0.8448741796727381  1.0000
  O   O8        1.0  0.43637437358341136  0.2665894897163783  0.6551258205461931  1.0000
  F   F1        1.0  0.321283106256345  0.875205732904596  0.08478406233583861  1.0000
  F   F2        1.0  0.1787168934225002  0.3752057330898271  0.4152159375486606  1.0000
  F   F3        1.0  0.6787168931047943  0.12479426672494189  0.9152159378766275  1.0000
  F   F4        1.0  0.8212831074106315  0.6247942665397108  0.5847840622659668  1.0000
  F   F5        1.0  0.5081382956583922  0.1511049546898091  0.30946112564021383  1.0000
  F   F6        1.0  0.9918617056562024  0.6511049545045781  0.19053887421357749  1.0000
  F   F7        1.0  0.4918617051747397  0.8488950463328798  0.6905388741744136  1.0000
  F   F8        1.0  0.008138295176929489  0.3488950465181109  0.80946112560105  1.0000
  F   F9        1.0  0.7791747325345793  0.9551737647957387  0.254022655800053  1.0000
  F   F10       1.0  0.7208252687800153  0.4551737635878187  0.24597734405373836  1.0000
  F   F11       1.0  0.22082526829855254  0.0448262362269502  0.7459773440145743  1.0000
  F   F12       1.0  0.27917473205656546  0.5448262360417191  0.7540226562043568  1.0000
