data_image0
_chemical_formula_structural       H16C26N2O4F6
_chemical_formula_sum              "H16 C26 N2 O4 F6"
_cell_length_a       6.378353648678533
_cell_length_b       9.088150529024244
_cell_length_c       10.453134092007302
_cell_angle_alpha    94.5975293327771
_cell_angle_beta     107.15044380679782
_cell_angle_gamma    106.6010225097713

_space_group_name_H-M_alt    "P 1"
_space_group_IT_number       1

loop_
  _space_group_symop_operation_xyz
  'x, y, z'

loop_
  _atom_site_type_symbol
  _atom_site_label
  _atom_site_symmetry_multiplicity
  _atom_site_fract_x
  _atom_site_fract_y
  _atom_site_fract_z
  _atom_site_occupancy
  H   H1        1.0  0.22562846554899382  0.21323059424956198  0.598366167863356  1.0000
  H   H2        1.0  0.7743715352826686  0.7867694058632075  0.40163383266720426  1.0000
  H   H3        1.0  0.6554800755222154  0.4870849742708404  0.6020040873822619  1.0000
  H   H4        1.0  0.3445199236681822  0.5129150258408847  0.39799591285308683  1.0000
  H   H5        1.0  0.9538347787204928  0.842425001076782  0.7778621019419139  1.0000
  H   H6        1.0  0.04616522211116957  0.15757499903598754  0.22213789858864622  1.0000
  H   H7        1.0  0.6674323931420172  0.23484067520468918  0.8519949619265536  1.0000
  H   H8        1.0  0.3325676060483805  0.765159324907036  0.1480050383087953  1.0000
  H   H9        1.0  0.40637695228709164  0.3225843635774592  0.03291397784091829  1.0000
  H   H10       1.0  0.5936230463425521  0.6774156353702631  0.9670860212531838  1.0000
  H   H11       1.0  0.3397952751468182  0.05142061704295593  0.9223202174356868  1.0000
  H   H12       1.0  0.6602047240435795  0.9485793830687693  0.07767978279966206  1.0000
  H   H13       1.0  0.6330096711027248  0.9659242185935412  0.7570614248845651  1.0000
  H   H14       1.0  0.36699032808767285  0.034075781518183926  0.24293857535078367  1.0000
  H   H15       1.0  0.25978754875093174  0.5279638923092593  0.0733801094612276  1.0000
  H   H16       1.0  0.7402124520807305  0.4720361078035101  0.9266198910693326  1.0000
  C   C1        1.0  0.015629820322625512  0.5050639943160146  0.6761821764570428  1.0000
  C   C2        1.0  0.9843701788677722  0.4949360057957105  0.3238178237783059  1.0000
  C   C3        1.0  0.10070447297848105  0.2724067669290186  0.6008277591103147  1.0000
  C   C4        1.0  0.8992955278543926  0.7275932331869024  0.39917224046403554  1.0000
  C   C5        1.0  0.7803834439370003  0.42710184155019015  0.6018161243097505  1.0000
  C   C6        1.0  0.2196165568946621  0.5728981585625794  0.3981838762208096  1.0000
  C   C7        1.0  0.08642265056577493  0.6700324020529277  0.7490966174032594  1.0000
  C   C8        1.0  0.9135773486258338  0.32996759806194875  0.2509033818758795  1.0000
  C   C9        1.0  0.8674961722257366  0.20060126775578907  0.5276292592251174  1.0000
  C   C10       1.0  0.13250382696466106  0.799398732355936  0.47237074101023124  1.0000
  C   C11       1.0  0.7075412636009139  0.2774090510072618  0.5296122563047454  1.0000
  C   C12       1.0  0.29245873723074844  0.7225909491055077  0.47038774422581475  1.0000
  C   C13       1.0  0.16991082282391037  0.4226099681906748  0.6740708114237576  1.0000
  C   C14       1.0  0.8300891758045221  0.577390030753896  0.3259291886265543  1.0000
  C   C15       1.0  0.04284749042972169  0.3055517301139476  0.9475028760572832  1.0000
  C   C16       1.0  0.957152508760676  0.6944482699977775  0.05249712417806555  1.0000
  C   C17       1.0  0.8224780088274048  0.2009627553933692  0.8693346576078687  1.0000
  C   C18       1.0  0.17752199144229258  0.7990372435522463  0.1306653427376546  1.0000
  C   C19       1.0  0.08171645286753665  0.4646086944094333  0.008663839360995759  1.0000
  C   C20       1.0  0.9182835479641257  0.5353913057033363  0.9913361611695642  1.0000
  C   C21       1.0  0.23298736531824785  0.25044286504450874  0.9677165678478414  1.0000
  C   C22       1.0  0.7670126355146258  0.7495571350714121  0.032283431726508896  1.0000
  C   C23       1.0  0.19758791816406515  0.09919086610454073  0.9083855911232634  1.0000
  C   C24       1.0  0.8024120810263327  0.9008091340071844  0.09161440911208514  1.0000
  C   C25       1.0  0.8015460953543713  0.05116871795233173  0.8152119786590938  1.0000
  C   C26       1.0  0.1984539038372376  0.9488312821625445  0.1847880206200451  1.0000
  N   N1        1.0  0.9862756500816964  0.0016091439461535493  0.8331333280577187  1.0000
  N   N2        1.0  0.013724349108701238  0.9983908561655714  0.16686667217763013  1.0000
  O   O1        1.0  0.28946772270100674  0.7483251734091143  0.8164504818616508  1.0000
  O   O2        1.0  0.7105322781306557  0.25167482670365526  0.18354951866890923  1.0000
  O   O3        1.0  0.9069392304687687  0.7200956889259558  0.7306432373702548  1.0000
  O   O4        1.0  0.09306076815966387  0.27990431001861504  0.2693567626800569  1.0000
  F   F1        1.0  0.40070922535322195  0.48838775105605464  0.7442917595493154  1.0000
  F   F2        1.0  0.5992907749164752  0.5116122478895608  0.2557082407962079  1.0000
  F   F3        1.0  0.792823030767807  0.055983591377604794  0.45221106272011097  1.0000
  F   F4        1.0  0.20717696842259073  0.9440164087341205  0.5477889375152377  1.0000
  F   F5        1.0  0.47968336661739824  0.20354681506774616  0.45897775837877125  1.0000
  F   F6        1.0  0.5203166325742107  0.7964531850471303  0.5410222409003675  1.0000
