data_image0
_chemical_formula_structural       H17C26N2O4F4
_chemical_formula_sum              "H17 C26 N2 O4 F4"
_cell_length_a       6.818876787051839
_cell_length_b       7.080080223021948
_cell_length_c       12.485598040613821
_cell_angle_alpha    90.97092716587373
_cell_angle_beta     76.82978922499944
_cell_angle_gamma    67.11678293098853

_space_group_name_H-M_alt    "P 1"
_space_group_IT_number       1

loop_
  _space_group_symop_operation_xyz
  'x, y, z'

loop_
  _atom_site_type_symbol
  _atom_site_label
  _atom_site_symmetry_multiplicity
  _atom_site_fract_x
  _atom_site_fract_y
  _atom_site_fract_z
  _atom_site_occupancy
  H   H1        1.0  0.6082596596194791  0.7722945691862917  0.33849157026705384  1.0000
  H   H2        1.0  0.39174034006706593  0.22770543165708332  0.6615084301652054  1.0000
  H   H3        1.0  0.43372253710953074  0.5255017349090343  0.31937196402845386  1.0000
  H   H4        1.0  0.5662774625770144  0.47449826593434064  0.6806280364038055  1.0000
  H   H5        1.0  0.9951217494306663  0.7950744914364686  0.6444556696316845  1.0000
  H   H6        1.0  0.004878250277284405  0.20492550938066822  0.3555443299968701  1.0000
  H   H7        1.0  0.20178317757583913  0.016202662824364673  0.6539904033130436  1.0000
  H   H8        1.0  0.798216822820149  0.9837973364494095  0.3460095962287627  1.0000
  H   H9        1.0  0.18611836066762513  0.3770943043209501  0.3957978189017832  1.0000
  H   H10       1.0  0.8138816390403254  0.6229056964961868  0.6042021807267713  1.0000
  H   H11       1.0  0.728915981871261  0.20678484616252737  0.09868890738764594  1.0000
  H   H12       1.0  0.27108401781528385  0.7932151546808476  0.9013110930446134  1.0000
  H   H13       1.0  0.60418029212567  0.5941977674040969  0.10923910905071264  1.0000
  H   H14       1.0  0.39581970824891244  0.4058022318959152  0.8907608912947984  1.0000
  H   H15       1.0  0.8522589389458399  0.7556380415731557  0.14267706411695616  1.0000
  H   H16       1.0  0.14774106074070523  0.24436195927021911  0.8573229363153032  1.0000
  H   H17       1.0  0.5000000000035131  0.9999999992895124  3.768932043230172e-10  1.0000
  C   C1        1.0  0.4743026046673133  0.7689090381220204  0.40450939239600536  1.0000
  C   C2        1.0  0.5256973950192316  0.23109096272135457  0.595490608036254  1.0000
  C   C3        1.0  0.37418359888789116  0.6339396052761471  0.3941342973966831  1.0000
  C   C4        1.0  0.6258164014866913  0.3660603940238651  0.6058657029488279  1.0000
  C   C5        1.0  0.1963004295509235  0.6402038890104972  0.4798634319379652  1.0000
  C   C6        1.0  0.8036995686618934  0.35979611178160015  0.5201365678712343  1.0000
  C   C7        1.0  0.13004938591183857  0.783043554996256  0.5746078779657082  1.0000
  C   C8        1.0  0.8699506144627439  0.21695644430375619  0.42539212237980295  1.0000
  C   C9        1.0  0.24181540301674906  0.9092600186005894  0.580586199464238  1.0000
  C   C10       1.0  0.7581845973792392  0.09073998067318487  0.41941380007756834  1.0000
  C   C11       1.0  0.0946304518123263  0.4968347543630065  0.4664173558992198  1.0000
  C   C12       1.0  0.905369548583662  0.5031652449107676  0.5335826436425866  1.0000
  C   C13       1.0  0.18007109539275482  0.24972150363219955  0.15280174287281761  1.0000
  C   C14       1.0  0.8199289043151958  0.7502784971849372  0.8471982567557369  1.0000
  C   C15       1.0  0.03616741135855865  0.16644758437154392  0.13137792213215788  1.0000
  C   C16       1.0  0.9638325883279865  0.833552416471831  0.8686220783001016  1.0000
  C   C17       1.0  0.8302567074309014  0.28383898712290434  0.11605766736242573  1.0000
  C   C18       1.0  0.16974329227704937  0.7161610136942326  0.8839423322661288  1.0000
  C   C19       1.0  0.764025417723225  0.49745137665626865  0.12200229490131076  1.0000
  C   C20       1.0  0.23597458267276336  0.5025486226175054  0.8779977046404955  1.0000
  C   C21       1.0  0.9010441606337625  0.5900936035752385  0.14280156497838933  1.0000
  C   C22       1.0  0.09895583905278248  0.4099063972681363  0.8571984354538701  1.0000
  C   C23       1.0  0.10488853003902965  0.46403686389343174  0.1576033186733526  1.0000
  C   C24       1.0  0.8951114703569586  0.5359631353803423  0.8423966808684537  1.0000
  C   C25       1.0  0.40046048350402685  0.11694062845539972  0.17209548558234133  1.0000
  C   C26       1.0  0.5995395168705556  0.8830593708446126  0.8279045147631697  1.0000
  N   N1        1.0  0.40616951495273335  0.898855424767721  0.49598691474931167  1.0000
  N   N2        1.0  0.5938304847338117  0.10114457607565401  0.5040130856829477  1.0000
  O   O1        1.0  0.549044303529118  0.9948213676435905  0.08769381020515404  1.0000
  O   O2        1.0  0.4509556968668701  0.0051786316301835385  0.9123061893366523  1.0000
  O   O3        1.0  0.4310030380720441  0.13080470478229064  0.26570216489530785  1.0000
  O   O4        1.0  0.5689969616359066  0.8691952960348462  0.7342978347332468  1.0000
  F   F1        1.0  0.2437221574623419  0.5513599516448648  0.17520350133597237  1.0000
  F   F2        1.0  0.7562778429122408  0.44864004765514737  0.8247964990095387  1.0000
  F   F3        1.0  0.10249183107050779  0.9572321984559943  0.1281268791533079  1.0000
  F   F4        1.0  0.8975081693254804  0.04276780081777982  0.8718731203884983  1.0000
