data_image0
_chemical_formula_structural       H36C52N4O8F8
_chemical_formula_sum              "H36 C52 N4 O8 F8"
_cell_length_a       3.7085284608568054
_cell_length_b       11.442772937152819
_cell_length_c       25.187639851853458
_cell_angle_alpha    89.29938486997666
_cell_angle_beta     89.29997541804808
_cell_angle_gamma    82.89320888428018

_space_group_name_H-M_alt    "P 1"
_space_group_IT_number       1

loop_
  _space_group_symop_operation_xyz
  'x, y, z'

loop_
  _atom_site_type_symbol
  _atom_site_label
  _atom_site_symmetry_multiplicity
  _atom_site_fract_x
  _atom_site_fract_y
  _atom_site_fract_z
  _atom_site_occupancy
  H   H1        1.0  0.5498223634216027  0.9528319690924258  0.2209690401715606  1.0000
  H   H2        1.0  0.45017763687554835  0.047168031286478625  0.7790309597011605  1.0000
  H   H3        1.0  0.7089617320153152  0.5291473061044554  0.17510797297690156  1.0000
  H   H4        1.0  0.291038268616165  0.47085269339371794  0.8248920269005313  1.0000
  H   H5        1.0  0.41405830537999894  0.5941183917100114  0.26192912554783293  1.0000
  H   H6        1.0  0.5859416952514811  0.4058816077881621  0.7380708743295998  1.0000
  H   H7        1.0  0.014121318439966491  0.08275283769549781  0.12390433841843662  1.0000
  H   H8        1.0  0.9858786818571847  0.9172471626834064  0.8760956614542845  1.0000
  H   H9        1.0  0.6332475656738722  0.24576002489535195  0.4020377402814463  1.0000
  H   H10       1.0  0.3667524349565764  0.7542399746037547  0.5979622599930031  1.0000
  H   H11       1.0  0.6879312495002327  0.17799946551652893  0.20754567456367937  1.0000
  H   H12       1.0  0.3120687507969187  0.8220005348623753  0.7924543253090417  1.0000
  H   H13       1.0  0.9867060816297463  0.024288629907514608  0.2695251965423852  1.0000
  H   H14       1.0  0.013293919001733965  0.9757113695906589  0.7304748033350478  1.0000
  H   H15       1.0  0.1671805555503414  0.5176567579722732  0.4152214158901905  1.0000
  H   H16       1.0  0.8328194450811388  0.4823432415259002  0.5847785839872424  1.0000
  H   H17       1.0  0.25836785316468724  0.461106473668843  0.09912449884546042  1.0000
  H   H18       1.0  0.7416321474667931  0.5388935258293305  0.9008755010319723  1.0000
  H   H19       1.0  0.5042570576242698  0.21298834643216843  0.9711641507580624  1.0000
  H   H20       1.0  0.49574293997600366  0.7870116539472334  0.02883584911940751  1.0000
  H   H21       1.0  0.05426672042651716  0.29762248510011763  0.15261272823176505  1.0000
  H   H22       1.0  0.9457332798706342  0.7023775152787866  0.847387271640956  1.0000
  H   H23       1.0  0.2703894479859112  0.06059827451809294  0.030213157997850862  1.0000
  H   H24       1.0  0.7296105523112401  0.9394017258608114  0.9697868418748702  1.0000
  H   H25       1.0  0.631467172375602  0.4089105228863184  0.9570858760724361  1.0000
  H   H26       1.0  0.36853282792154923  0.5910894774925858  0.04291412380028495  1.0000
  H   H27       1.0  0.8026689924931129  0.66764731526735  0.35903804643734927  1.0000
  H   H28       1.0  0.19733100780403845  0.3323526851115543  0.6409619534353719  1.0000
  H   H29       1.0  0.14649456959822366  0.6058651521687987  0.5137093236643782  1.0000
  H   H30       1.0  0.8535054310332566  0.3941348473293747  0.48629067621305466  1.0000
  H   H31       1.0  0.5071925818998048  0.8710273863197764  0.3811580310317717  1.0000
  H   H32       1.0  0.49280741873167544  0.12897261317839717  0.6188419688456611  1.0000
  H   H33       1.0  0.8712444937926914  0.8034495442302215  0.542411129683045  1.0000
  H   H34       1.0  0.12875550683878875  0.1965504552679519  0.45758887019438793  1.0000
  H   H35       1.0  0.35961586481413166  0.02108280058285297  0.44296444598745804  1.0000
  H   H36       1.0  0.6403841358173485  0.9789171989153205  0.5570355538899747  1.0000
  C   C1        1.0  0.7516650217149221  0.8255818416509365  0.16207777340557675  1.0000
  C   C2        1.0  0.24833497858119735  0.17441815872890112  0.8379222268641608  1.0000
  C   C3        1.0  0.5876704192714386  0.8600099945230197  0.21095581150919018  1.0000
  C   C4        1.0  0.41232958102468087  0.13999000585681784  0.7890441887605475  1.0000
  C   C5        1.0  0.670710420074732  0.6219011341386594  0.18563310726583265  1.0000
  C   C6        1.0  0.3292895802224193  0.37809886624024475  0.8143668926068884  1.0000
  C   C7        1.0  0.8913530916600442  0.9163368571348077  0.12635164292601034  1.0000
  C   C8        1.0  0.10864690627455821  0.0836631423638632  0.8736483569561712  1.0000
  C   C9        1.0  0.7845485799515509  0.7051445928420254  0.15063140554974858  1.0000
  C   C10       1.0  0.2154514203456004  0.2948554075368789  0.8493685943229725  1.0000
  C   C11       1.0  0.5109024939278124  0.6572495326119684  0.23411951349251975  1.0000
  C   C12       1.0  0.48909750400678986  0.34275046688670263  0.7658804863896619  1.0000
  C   C13       1.0  0.47268335792693517  0.7766324696204479  0.24528811669202186  1.0000
  C   C14       1.0  0.527316642704545  0.2233675298777256  0.7547118831854109  1.0000
  C   C15       1.0  0.6453385589174616  0.23123474689477486  0.3594087517831246  1.0000
  C   C16       1.0  0.35466144137968963  0.7687652534841296  0.6405912480895964  1.0000
  C   C17       1.0  0.5035707548925342  0.2972373083383164  0.27062341097243975  1.0000
  C   C18       1.0  0.496429242707739  0.7027626920410854  0.7293765889050301  1.0000
  C   C19       1.0  0.47867188611026124  0.31938183450912433  0.32531346380881626  1.0000
  C   C20       1.0  0.5213281145201872  0.6806181649899823  0.6746865364656331  1.0000
  C   C21       1.0  0.680590085289346  0.1929847806852468  0.25014798991281456  1.0000
  C   C22       1.0  0.31940991500780536  0.8070152196936573  0.7498520099599064  1.0000
  C   C23       1.0  0.28051909439519634  0.4295582512662909  0.34825713176384143  1.0000
  C   C24       1.0  0.7194809059009231  0.5704417491135466  0.6517428685058964  1.0000
  C   C25       1.0  0.8446951745992476  0.10645626523330776  0.284453665399294  1.0000
  C   C26       1.0  0.15530482603223264  0.8935437342648658  0.7155463344781389  1.0000
  C   C27       1.0  0.8223067893957481  0.12824812753866932  0.33853140521468367  1.0000
  C   C28       1.0  0.1776932112357321  0.8717518719595041  0.6614685946627492  1.0000
  C   C29       1.0  0.39657340037824157  0.3516691626056408  0.029722303315958612  1.0000
  C   C30       1.0  0.6034266002522068  0.6483308368934659  0.9702776969584909  1.0000
  C   C31       1.0  0.26966499079443224  0.37385510461006655  0.0820497113844651  1.0000
  C   C32       1.0  0.7303350095027191  0.6261448957688376  0.917950288488256  1.0000
  C   C33       1.0  0.4046303610170076  0.23612526983198787  0.010962226029393512  1.0000
  C   C34       1.0  0.5953696365832658  0.7638747305474141  0.9890377738480762  1.0000
  C   C35       1.0  0.15371486636977694  0.28320930445743314  0.11198576370927578  1.0000
  C   C36       1.0  0.8462851339273744  0.7167906959214712  0.8880142361634452  1.0000
  C   C37       1.0  0.5144749021504341  0.44186935772849695  0.9947112751395849  1.0000
  C   C38       1.0  0.48552509848104614  0.5581306417696765  0.005288724737847895  1.0000
  C   C39       1.0  0.27908806596826125  0.1505300834248993  0.04347877927451925  1.0000
  C   C40       1.0  0.72091193432889  0.849469916954005  0.9565212205982018  1.0000
  C   C41       1.0  0.806851779802845  0.7027476820794747  0.3990085969216509  1.0000
  C   C42       1.0  0.1931482204932746  0.2972523183003628  0.6009914033480868  1.0000
  C   C43       1.0  0.4980107383655927  0.9738567420874555  0.4761775861943088  1.0000
  C   C44       1.0  0.5019892619305266  0.026143258292381965  0.5238224140754288  1.0000
  C   C45       1.0  0.001474411381299111  0.667120924236048  0.48546936124008144  1.0000
  C   C46       1.0  0.9985255889158522  0.3328790761428563  0.5145306386326397  1.0000
  C   C47       1.0  0.6468575359119926  0.8151091729183911  0.4116724423853291  1.0000
  C   C48       1.0  0.35314246438412683  0.18489082746144642  0.5883275578844085  1.0000
  C   C49       1.0  0.6658342570643624  0.8556492273427004  0.4638554246983319  1.0000
  C   C50       1.0  0.3341657432327888  0.14435077303620375  0.5361445751743892  1.0000
  C   C51       1.0  0.8480617946267807  0.7779545241375913  0.5012653789659  1.0000
  C   C52       1.0  0.15193820566933883  0.22204547624224616  0.4987346213038378  1.0000
  N   N1        1.0  0.15602300712090994  0.17356600292993396  0.09306929618428406  1.0000
  N   N2        1.0  0.8439769931762413  0.8264339974489704  0.906930703688437  1.0000
  N   N3        1.0  0.9819928698528899  0.6299526868063482  0.43520387747616923  1.0000
  N   N4        1.0  0.018007130444261214  0.370047313572556  0.5647961223965519  1.0000
  O   O1        1.0  0.9929941553958836  0.8968290617135026  0.08009466776570537  1.0000
  O   O2        1.0  0.007005844901267503  0.10317093866540153  0.9199053321070157  1.0000
  O   O3        1.0  0.8987139853482808  0.018539699389663804  0.1503748459839957  1.0000
  O   O4        1.0  0.1012860149488705  0.9814603009892405  0.8496251538887253  1.0000
  O   O5        1.0  0.09980889340679452  0.5049343574061661  0.32080824420629794  1.0000
  O   O6        1.0  0.9001911072236539  0.49506564209294057  0.6791917560681514  1.0000
  O   O7        1.0  0.31476120488845083  0.43574166887323407  0.4004720915331591  1.0000
  O   O8        1.0  0.6852387954087004  0.5642583315056703  0.599527908339562  1.0000
  F   F1        1.0  0.3119808782127271  0.8143926996567777  0.2925770620718659  1.0000
  F   F2        1.0  0.6880191220833923  0.1856073007230598  0.7074229381978717  1.0000
  F   F3        1.0  0.9398326330713408  0.6638492439002651  0.10400328450184748  1.0000
  F   F4        1.0  0.06016736722581031  0.3361507564786392  0.8959967153708737  1.0000
  F   F5        1.0  0.3528942697413651  0.37828958329241075  0.23470190097254115  1.0000
  F   F6        1.0  0.6471057278589083  0.6217104170869912  0.7652980989049287  1.0000
  F   F7        1.0  0.9842930441171022  0.04401468944133039  0.3728011419169555  1.0000
  F   F8        1.0  0.01570695618004913  0.955985310937574  0.6271988579557655  1.0000
