data_image0
_chemical_formula_structural       H16C26N2O4F6
_chemical_formula_sum              "H16 C26 N2 O4 F6"
_cell_length_a       6.599191591361211
_cell_length_b       7.361639187083576
_cell_length_c       11.944957362006114
_cell_angle_alpha    96.41761133575415
_cell_angle_beta     104.41095962463098
_cell_angle_gamma    93.76338660066858

_space_group_name_H-M_alt    "P 1"
_space_group_IT_number       1

loop_
  _space_group_symop_operation_xyz
  'x, y, z'

loop_
  _atom_site_type_symbol
  _atom_site_label
  _atom_site_symmetry_multiplicity
  _atom_site_fract_x
  _atom_site_fract_y
  _atom_site_fract_z
  _atom_site_occupancy
  H   H1        1.0  0.18526312932101402  0.08958100473788962  0.6035273325287035  1.0000
  H   H2        1.0  0.8147368715422945  0.910418995335499  0.3964726679325778  1.0000
  H   H3        1.0  0.3238248711044891  0.383747292942  0.5949299514253406  1.0000
  H   H4        1.0  0.6761751297588193  0.6162527071313887  0.4050700490359406  1.0000
  H   H5        1.0  0.9023407943829229  0.3913293906583882  0.19253205522403985  1.0000
  H   H6        1.0  0.09765920491732236  0.6086706094278892  0.8074679450224109  1.0000
  H   H7        1.0  0.858492849362157  0.11178380537877536  0.2898310397815058  1.0000
  H   H8        1.0  0.14150714993808813  0.888216194707502  0.7101689604649449  1.0000
  H   H9        1.0  0.3438492940365644  0.6560945232880203  0.4835848704062213  1.0000
  H   H10       1.0  0.6561507068267443  0.3439054767853685  0.5164151300550601  1.0000
  H   H11       1.0  0.143241228965735  0.6545825733866182  0.2906890836561122  1.0000
  H   H12       1.0  0.8567587703345103  0.34541742669965897  0.7093109165903385  1.0000
  H   H13       1.0  0.17448898481013186  0.11032038040070583  0.8709899066922498  1.0000
  H   H14       1.0  0.8255110160539281  0.8896796196665065  0.1290100929315447  1.0000
  H   H15       1.0  0.43769015994547633  0.49158319067233425  0.18427053713204006  1.0000
  H   H16       1.0  0.5623098409185837  0.5084168093948781  0.8157294624917547  1.0000
  C   C1        1.0  0.22693671683387748  0.38247239772584124  0.5063467497561255  1.0000
  C   C2        1.0  0.7730632824663678  0.6175276023604362  0.4936532504903252  1.0000
  C   C3        1.0  0.989340980663314  0.3814200366340639  0.28144164521083054  1.0000
  C   C4        1.0  0.010659018636931425  0.6185799634522136  0.7185583550356202  1.0000
  C   C5        1.0  0.08698320829182903  0.22649751909752466  0.45206627430296364  1.0000
  C   C6        1.0  0.9130167925722309  0.7735024809696878  0.547933725320831  1.0000
  C   C7        1.0  0.07120624898897544  0.07445469097761541  0.5184554838357136  1.0000
  C   C8        1.0  0.9287937503112697  0.925545309108662  0.481544516410737  1.0000
  C   C9        1.0  0.9677106074530417  0.22856471756124125  0.33654053276253243  1.0000
  C   C10       1.0  0.032289391847203454  0.7714352825250362  0.6634594674839183  1.0000
  C   C11       1.0  0.240377137569922  0.5312764911818035  0.44645495450867584  1.0000
  C   C12       1.0  0.7596228631260677  0.4687235075182106  0.5535450458387507  1.0000
  C   C13       1.0  0.40454782542934264  0.20154250850905708  0.20390544810558653  1.0000
  C   C14       1.0  0.5954521738709027  0.7984574915772202  0.7960945521408642  1.0000
  C   C15       1.0  0.243003786659564  0.13402029735907534  0.9645808579710056  1.0000
  C   C16       1.0  0.7569962126406813  0.865979702727202  0.03541914227544518  1.0000
  C   C17       1.0  0.263468022795181  0.9931917256020204  0.03327710010358354  1.0000
  C   C18       1.0  0.7365319780681274  0.006808274471368372  0.9667229003576978  1.0000
  C   C19       1.0  0.38861662937665237  0.35101416087866655  0.14191743743386465  1.0000
  C   C20       1.0  0.6113833699235928  0.6489858392076109  0.8580825628125861  1.0000
  C   C21       1.0  0.34126071826331533  0.020057926352656335  0.15428614727805817  1.0000
  C   C22       1.0  0.6587392810376814  0.9799420737274447  0.8457138521309059  1.0000
  C   C23       1.0  0.3425508594191599  0.8630039711757571  0.22646932415412724  1.0000
  C   C24       1.0  0.6574491414441486  0.13699602889763166  0.7735306763071541  1.0000
  C   C25       1.0  0.30382846665285074  0.3108878213865686  0.0221520709541215  1.0000
  C   C26       1.0  0.6961715342112093  0.6891121786806439  0.9778479286696731  1.0000
  N   N1        1.0  0.12309824062672768  0.5286702435812126  0.33677531898250435  1.0000
  N   N2        1.0  0.8769017586735174  0.4713297565050648  0.6632246812639464  1.0000
  O   O1        1.0  0.512010527841627  0.7989149227487535  0.2680801323058879  1.0000
  O   O2        1.0  0.48798947145936966  0.20108507733134745  0.7319198671030762  1.0000
  O   O3        1.0  0.15946230223761773  0.8101405290711543  0.23700343145645575  1.0000
  O   O4        1.0  0.8405376970626275  0.1898594710151231  0.7629965687899949  1.0000
  F   F1        1.0  0.48226926879562687  0.23483558254256665  0.32302185456966936  1.0000
  F   F2        1.0  0.5177307305053699  0.7651644175375344  0.6769781448392945  1.0000
  F   F3        1.0  0.20277928666398967  0.8177348178254202  0.9797166596980571  1.0000
  F   F4        1.0  0.7972207126362555  0.18226518226085722  0.020283340548393494  1.0000
  F   F5        1.0  0.2777205824164322  0.4522392987948627  0.9574109974229892  1.0000
  F   F6        1.0  0.722279416883813  0.5477607012914147  0.04258900282346151  1.0000
