data_image0
_chemical_formula_structural       H16C26N2O4F6
_chemical_formula_sum              "H16 C26 N2 O4 F6"
_cell_length_a       6.838718167578441
_cell_length_b       8.895739795657969
_cell_length_c       10.051771879746047
_cell_angle_alpha    70.88643958776692
_cell_angle_beta     77.99490858238083
_cell_angle_gamma    71.63557049614442

_space_group_name_H-M_alt    "P 1"
_space_group_IT_number       1

loop_
  _space_group_symop_operation_xyz
  'x, y, z'

loop_
  _atom_site_type_symbol
  _atom_site_label
  _atom_site_symmetry_multiplicity
  _atom_site_fract_x
  _atom_site_fract_y
  _atom_site_fract_z
  _atom_site_occupancy
  H   H1        1.0  0.05786490540001857  0.5124997309976957  0.6199575048498057  1.0000
  H   H2        1.0  0.9421350957032997  0.48750026944791314  0.3800424945759648  1.0000
  H   H3        1.0  0.9075676073484769  0.15081713456753842  0.0070528455374362755  1.0000
  H   H4        1.0  0.09243239224541218  0.8491828658909085  0.9929471550862033  1.0000
  H   H5        1.0  0.6217652627528946  0.15967374936943915  0.7593659549984546  1.0000
  H   H6        1.0  0.3782347383383154  0.8403262510817902  0.2406340454222165  1.0000
  H   H7        1.0  0.1652696285930049  0.8819436564671713  0.7461315158507321  1.0000
  H   H8        1.0  0.8347303710129924  0.11805634398565519  0.2538684837780069  1.0000
  H   H9        1.0  0.27009675404289946  0.2872991285166464  0.38455655491070345  1.0000
  H   H10       1.0  0.7299032470483106  0.7127008719345829  0.6154434455099678  1.0000
  H   H11       1.0  0.420407830351675  0.9297881218244332  0.8605361162665547  1.0000
  H   H12       1.0  0.5795921711573787  0.07021187738659751  0.1394638834640486  1.0000
  H   H13       1.0  0.5215206925817156  0.3177953018590891  0.5156537413465865  1.0000
  H   H14       1.0  0.47847930743001693  0.6822046973591592  0.4843462585869854  1.0000
  H   H15       1.0  0.005379590696688706  0.16243621404040043  0.3833018356387072  1.0000
  H   H16       1.0  0.9946204108123652  0.8375637851706301  0.616698164091896  1.0000
  C   C1        1.0  0.2486898146028391  0.38270351632883176  0.9376825761580337  1.0000
  C   C2        1.0  0.7513101850031583  0.6172964841239947  0.06231742347070535  1.0000
  C   C3        1.0  0.963016798371881  0.3307228844754575  0.8072589657696998  1.0000
  C   C4        1.0  0.036983201639851596  0.6692771147427908  0.19274103416387214  1.0000
  C   C5        1.0  0.07450397530937278  0.44644091502889865  0.731162708094513  1.0000
  C   C6        1.0  0.9254960242845163  0.5535590854295483  0.26883729252912664  1.0000
  C   C7        1.0  0.134990082700699  0.26891965233867166  0.011115407089239557  1.0000
  C   C8        1.0  0.8650099168931901  0.7310803481197754  0.9888845935344002  1.0000
  C   C9        1.0  0.21501339118681914  0.47125245543995287  0.7978874316386042  1.0000
  C   C10       1.0  0.7849866084191782  0.5287475450128737  0.20211256799013472  1.0000
  C   C11       1.0  0.9929743741686831  0.24137105917207582  0.9483131342370684  1.0000
  C   C12       1.0  0.007025625425205831  0.7586289412863714  0.05168686638657113  1.0000
  C   C13       1.0  0.813367519107718  0.30077164277244856  0.7352847669911359  1.0000
  C   C14       1.0  0.18663248049827927  0.699228357680378  0.26471523263760316  1.0000
  C   C15       1.0  0.24087099536168685  0.9794425210357064  0.6901453297690334  1.0000
  C   C16       1.0  0.7591290042322021  0.02055747942274086  0.30985467085460616  1.0000
  C   C17       1.0  0.19465394253198615  0.0802172108041035  0.5535879662838208  1.0000
  C   C18       1.0  0.8053460570740113  0.9197827896487231  0.4464120333449182  1.0000
  C   C19       1.0  0.2987766394638067  0.20416076574966427  0.4896662516922595  1.0000
  C   C20       1.0  0.7012233601300821  0.7958392347087827  0.5103337489313802  1.0000
  C   C21       1.0  0.38274227866834337  0.005595668766351076  0.7545956177302391  1.0000
  C   C22       1.0  0.6172577209376539  0.9944043316864755  0.24540438189849992  1.0000
  C   C23       1.0  0.044777194564543245  0.06296454180316827  0.4794822216292365  1.0000
  C   C24       1.0  0.9552228050414542  0.9370354586496582  0.5205177779995025  1.0000
  C   C25       1.0  0.43920367044706116  0.22243242244299616  0.5612134723816112  1.0000
  C   C26       1.0  0.5607963306441488  0.7775675780082331  0.43878652803905993  1.0000
  N   N1        1.0  0.4809081522314677  0.12484937686408117  0.6914247451790273  1.0000
  N   N2        1.0  0.5190918473745296  0.8751506235887455  0.3085752544497117  1.0000
  O   O1        1.0  0.7813405823852643  0.3793673701653327  0.6114888895067255  1.0000
  O   O2        1.0  0.21865941722073315  0.6206326302874938  0.3885111101220135  1.0000
  O   O3        1.0  0.7248138977049783  0.1841018110797741  0.8164385183668633  1.0000
  O   O4        1.0  0.27518610230675444  0.8158981881384743  0.18356148156670857  1.0000
  F   F1        1.0  0.32484091234807855  0.5833372316535768  0.7286674086553786  1.0000
  F   F2        1.0  0.675159087257919  0.41666276879924974  0.27133259097336043  1.0000
  F   F3        1.0  0.3859295018552829  0.4062377338618738  0.002077323105415915  1.0000
  F   F4        1.0  0.6140704977507144  0.5937622665909528  0.9979226765233232  1.0000
  F   F5        1.0  0.16771266515880948  0.18642091025635457  0.14813018689613544  1.0000
  F   F6        1.0  0.8322873344471878  0.813579090196472  0.8518698127326034  1.0000
