data_image0
_chemical_formula_structural       H20C20N4F16S4
_chemical_formula_sum              "H20 C20 N4 F16 S4"
_cell_length_a       10.138356488976186
_cell_length_b       5.612052996034584
_cell_length_c       12.311966484691332
_cell_angle_alpha    90.0
_cell_angle_beta     96.33380814791497
_cell_angle_gamma    90.0

_space_group_name_H-M_alt    "P 1"
_space_group_IT_number       1

loop_
  _space_group_symop_operation_xyz
  'x, y, z'

loop_
  _atom_site_type_symbol
  _atom_site_label
  _atom_site_symmetry_multiplicity
  _atom_site_fract_x
  _atom_site_fract_y
  _atom_site_fract_z
  _atom_site_occupancy
  H   H1        1.0  0.338179033503456  0.19812236284754217  0.26713452156120776  1.0000
  H   H2        1.0  0.1618209668452184  0.6981223632008368  0.23286547838543367  1.0000
  H   H3        1.0  0.6618209671938928  0.8018776360771679  0.7328654783320752  1.0000
  H   H4        1.0  0.8381790328598349  0.3018776357238733  0.767134521405324  1.0000
  H   H5        1.0  0.1801068842671203  0.25284687101184594  0.40992580089297126  1.0000
  H   H6        1.0  0.31989311508925866  0.7528468713651406  0.09007419895114487  1.0000
  H   H7        1.0  0.8198931154379329  0.7471531279128641  0.5900741988977862  1.0000
  H   H8        1.0  0.6801068846157947  0.24715312934144865  0.9099258008396126  1.0000
  H   H9        1.0  0.20841509201820624  0.6116530176078983  0.5317780929712925  1.0000
  H   H10       1.0  0.29158490723069536  0.11165301725460373  0.9682219068654435  1.0000
  H   H11       1.0  0.7915849076868471  0.38834698309869087  0.468221906819465  1.0000
  H   H12       1.0  0.708415092474358  0.8883469834519854  0.03177809292531417  1.0000
  H   H13       1.0  0.3846664916697845  0.9064084290711949  0.5032189477727581  1.0000
  H   H14       1.0  0.1153335075791171  0.4064084287179003  0.9967810520639779  1.0000
  H   H15       1.0  0.6153335080352688  0.0935915716353943  0.49678105201799955  1.0000
  H   H16       1.0  0.8846664921259361  0.5935915719886888  0.0032189477267796545  1.0000
  H   H17       1.0  0.5331307963248261  0.8287246633783105  0.3534564818171965  1.0000
  H   H18       1.0  0.9668692038363788  0.32872466302501596  0.14654351792758263  1.0000
  H   H19       1.0  0.46686920338022725  0.1712753373282786  0.646543517973561  1.0000
  H   H20       1.0  0.03313079686096991  0.6712753358996941  0.8534564819657003  1.0000
  C   C1        1.0  0.34418204181181855  0.3515782212666477  0.3217469750259993  1.0000
  C   C2        1.0  0.15581795853685584  0.8515782216199422  0.17825302492064213  1.0000
  C   C3        1.0  0.6558179578932347  0.6484217776580624  0.6782530247647582  1.0000
  C   C4        1.0  0.8441820421604929  0.1484217773047678  0.8217469749726408  1.0000
  C   C5        1.0  0.2583049093186807  0.38180014363976894  0.4012974871842307  1.0000
  C   C6        1.0  0.2416950910299937  0.8818001439930635  0.09870251276241072  1.0000
  C   C7        1.0  0.7416950903863726  0.6181998570668202  0.5987025126065268  1.0000
  C   C8        1.0  0.7583049096522273  0.11819985671352562  0.9012974879416215  1.0000
  C   C9        1.0  0.27370907825169083  0.5823899992229971  0.46861099234188425  1.0000
  C   C10       1.0  0.2262909210895603  0.08238999886970251  0.031389008312981234  1.0000
  C   C11       1.0  0.7262909214382347  0.41761000148359206  0.5313890082596227  1.0000
  C   C12       1.0  0.7737090786003653  0.9176100000550075  0.9686109922885255  1.0000
  C   C13       1.0  0.3725902454454211  0.7474029705285683  0.4526483425449419  1.0000
  C   C14       1.0  0.12740975488812561  0.24740297017527377  0.04735165821244886  1.0000
  C   C15       1.0  0.6274097542445045  0.2525970301780208  0.5473516580565649  1.0000
  C   C16       1.0  0.8725902457940954  0.7525970287494362  0.9526483424915834  1.0000
  C   C17       1.0  0.45448868881254034  0.7059334530160922  0.3708527868862549  1.0000
  C   C18       1.0  0.04551131153613404  0.20593345444467678  0.1291472130603865  1.0000
  C   C19       1.0  0.5455113108925129  0.2940665459086178  0.6291472129045026  1.0000
  C   C20       1.0  0.9544886881689193  0.7940665462619123  0.870852786730371  1.0000
  N   N1        1.0  0.4394368028606127  0.5108674208931744  0.3078834600241818  1.0000
  N   N2        1.0  0.06056319748806172  0.010867420539879763  0.19211653992245958  1.0000
  N   N3        1.0  0.5605631978367361  0.4891325780315357  0.692116539869101  1.0000
  N   N4        1.0  0.9394368022018638  0.9891325783848303  0.8078834606790473  1.0000
  F   F1        1.0  0.47966486626413374  0.29397494306731115  0.1313862475053373  1.0000
  F   F2        1.0  0.020335134084540653  0.7939749416387267  0.3686137524413042  1.0000
  F   F3        1.0  0.5203351334409195  0.7060250576392779  0.8686137522854204  1.0000
  F   F4        1.0  0.9796648656205126  0.20602505728598342  0.6313862473494534  1.0000
  F   F5        1.0  0.6999650941929384  0.3606223090605198  0.10831775613829882  1.0000
  F   F6        1.0  0.8000349059682667  0.8606223076319353  0.3916822436064804  1.0000
  F   F7        1.0  0.3000349055121148  0.6393776916460694  0.8916822436524589  1.0000
  F   F8        1.0  0.19996509472908222  0.13937769129277477  0.6083177562868025  1.0000
  F   F9        1.0  0.6345897125812914  0.17684717173933898  0.2708345033516732  1.0000
  F   F10       1.0  0.8654102875799135  0.6768471720926336  0.229165496393106  1.0000
  F   F11       1.0  0.36541028712376183  0.8231528289672503  0.7291654964390845  1.0000
  F   F12       1.0  0.1345897121251397  0.3231528286139556  0.7708345033976516  1.0000
  F   F13       1.0  0.5447756623195674  0.6820354997902824  0.11728515775874213  1.0000
  F   F14       1.0  0.9552243378416375  0.18203550121886705  0.38271484198603706  1.0000
  F   F15       1.0  0.45522433738548584  0.31796449913442754  0.8827148420320153  1.0000
  F   F16       1.0  0.04477566186341578  0.8179644994877222  0.6172851578047205  1.0000
  S   S1        1.0  0.5978786021904621  0.44085589386774804  0.1980028308486578  1.0000
  S   S2        1.0  0.9021213979707431  0.9408558942210427  0.3019971688961214  1.0000
  S   S3        1.0  0.4021213985068868  0.559144105056962  0.8019971690446251  1.0000
  S   S4        1.0  0.09787860173431034  0.05914410648554655  0.6980028308946362  1.0000
