data_image0
_chemical_formula_structural       H56C48N8F32S8
_chemical_formula_sum              "H56 C48 N8 F32 S8"
_cell_length_a       20.062683681867384
_cell_length_b       10.986909465793095
_cell_length_c       7.289270545505382
_cell_angle_alpha    90.0
_cell_angle_beta     90.0
_cell_angle_gamma    90.0

_space_group_name_H-M_alt    "P 1"
_space_group_IT_number       1

loop_
  _space_group_symop_operation_xyz
  'x, y, z'

loop_
  _atom_site_type_symbol
  _atom_site_label
  _atom_site_symmetry_multiplicity
  _atom_site_fract_x
  _atom_site_fract_y
  _atom_site_fract_z
  _atom_site_occupancy
  H   H1        1.0  0.2758968400126216  0.7999261728116536  0.1399680631457839  1.0000
  H   H2        1.0  0.22410315994083965  0.7000738273076118  0.6399680641400273  1.0000
  H   H3        1.0  0.724103159894301  0.7999261728116536  0.3600319364765801  1.0000
  H   H4        1.0  0.7758968399660828  0.7000738273076118  0.8600319360989441  1.0000
  H   H5        1.0  0.724103159894301  0.20007382666107393  0.8600319360989441  1.0000
  H   H6        1.0  0.7758968399660828  0.29992617307528985  0.3600319364765801  1.0000
  H   H7        1.0  0.2758968400126216  0.20007382666107393  0.6399680641400273  1.0000
  H   H8        1.0  0.22410315994083965  0.29992617307528985  0.1399680631457839  1.0000
  H   H9        1.0  0.15127645823091143  0.7900328674796656  0.12790352397811294  1.0000
  H   H10       1.0  0.34872354172254977  0.7099671326395997  0.6279035249723564  1.0000
  H   H11       1.0  0.8487235416760109  0.7900328674796656  0.3720964756442511  1.0000
  H   H12       1.0  0.6512764581843727  0.7099671326395997  0.872096475266615  1.0000
  H   H13       1.0  0.8487235416760109  0.2099671319930619  0.872096475266615  1.0000
  H   H14       1.0  0.6512764581843727  0.29003286774330184  0.3720964756442511  1.0000
  H   H15       1.0  0.15127645823091143  0.2099671319930619  0.6279035249723564  1.0000
  H   H16       1.0  0.34872354172254977  0.29003286774330184  0.12790352397811294  1.0000
  H   H17       1.0  0.05142363137252894  0.6612537640925726  0.08867331044511069  1.0000
  H   H18       1.0  0.4485763685809323  0.8387462360266926  0.5886733100674747  1.0000
  H   H19       1.0  0.9485763690328313  0.6612537640925726  0.4113266891772533  1.0000
  H   H20       1.0  0.5514236313259901  0.8387462360266926  0.9113266901714967  1.0000
  H   H21       1.0  0.9485763690328313  0.33874623629032896  0.9113266901714967  1.0000
  H   H22       1.0  0.5514236313259901  0.16125376435620883  0.4113266891772533  1.0000
  H   H23       1.0  0.05142363137252894  0.33874623629032896  0.5886733100674747  1.0000
  H   H24       1.0  0.4485763685809323  0.16125376435620883  0.08867331044511069  1.0000
  H   H25       1.0  0.06216234626313557  0.5041107235154769  0.028884746242520232  1.0000
  H   H26       1.0  0.4378376536903257  0.9958892766037883  0.5288847458648842  1.0000
  H   H27       1.0  0.9378376536437869  0.5041107235154769  0.4711152533798438  1.0000
  H   H28       1.0  0.5621623462165969  0.9958892766037883  0.9711152530022078  1.0000
  H   H29       1.0  0.9378376536437869  0.4958892759572505  0.9711152530022078  1.0000
  H   H30       1.0  0.5621623462165969  0.0041107237791132385  0.4711152533798438  1.0000
  H   H31       1.0  0.06216234626313557  0.4958892759572505  0.5288847458648842  1.0000
  H   H32       1.0  0.4378376536903257  0.0041107237791132385  0.028884746242520232  1.0000
  H   H33       1.0  0.05735320998157209  0.6160344545545434  0.8557125025145488  1.0000
  H   H34       1.0  0.4426467899718891  0.8839655455647218  0.35571250289218476  1.0000
  H   H35       1.0  0.9426467899253504  0.6160344545545434  0.6442874977244227  1.0000
  H   H36       1.0  0.5573532099350333  0.8839655455647218  0.14428749810205868  1.0000
  H   H37       1.0  0.9426467899253504  0.383965544918184  0.14428749810205868  1.0000
  H   H38       1.0  0.5573532099350333  0.11603445481817973  0.6442874977244227  1.0000
  H   H39       1.0  0.05735320998157209  0.383965544918184  0.35571250289218476  1.0000
  H   H40       1.0  0.4426467899718891  0.11603445481817973  0.8557125025145488  1.0000
  H   H41       1.0  0.1709102258886257  0.4373603901043096  0.8725142605554157  1.0000
  H   H42       1.0  0.3290897740648355  0.06263960963205414  0.37251425956117235  1.0000
  H   H43       1.0  0.8290897740182966  0.4373603901043096  0.6274857396835557  1.0000
  H   H44       1.0  0.6709102258420869  0.06263960963205414  0.12748574006119168  1.0000
  H   H45       1.0  0.8290897740182966  0.562639609368418  0.12748574006119168  1.0000
  H   H46       1.0  0.6709102258420869  0.9373603907508474  0.6274857396835557  1.0000
  H   H47       1.0  0.1709102258886257  0.562639609368418  0.37251425956117235  1.0000
  H   H48       1.0  0.3290897740648355  0.9373603907508474  0.8725142605554157  1.0000
  H   H49       1.0  0.29487318116602823  0.4654652462480123  0.8848652193294062  1.0000
  H   H50       1.0  0.205126818787433  0.03453475439852554  0.3848652183351628  1.0000
  H   H51       1.0  0.7051268187408942  0.4654652462480123  0.6151347809095652  1.0000
  H   H52       1.0  0.7948731811194895  0.03453475439852554  0.11513478128720121  1.0000
  H   H53       1.0  0.7051268187408942  0.5345347541348894  0.11513478128720121  1.0000
  H   H54       1.0  0.7948731811194895  0.9654652459843761  0.6151347809095652  1.0000
  H   H55       1.0  0.29487318116602823  0.5345347541348894  0.3848652183351628  1.0000
  H   H56       1.0  0.205126818787433  0.9654652459843761  0.8848652193294062  1.0000
  C   C1        1.0  0.2502064414511453  0.7222413568352084  0.07906511445858838  1.0000
  C   C2        1.0  0.24979355850231597  0.7777586432840569  0.5790651140809524  1.0000
  C   C3        1.0  0.749793558954215  0.7222413568352084  0.4209348851637756  1.0000
  C   C4        1.0  0.7502064414046066  0.7777586432840569  0.9209348861580191  1.0000
  C   C5        1.0  0.749793558954215  0.27775864354769314  0.9209348861580191  1.0000
  C   C6        1.0  0.7502064414046066  0.22224135709884466  0.4209348851637756  1.0000
  C   C7        1.0  0.2502064414511453  0.27775864354769314  0.5790651140809524  1.0000
  C   C8        1.0  0.24979355850231597  0.22224135709884466  0.07906511445858838  1.0000
  C   C9        1.0  0.18101066276004724  0.7156779442372878  0.0727149728756914  1.0000
  C   C10       1.0  0.3189893376918518  0.7843220558819776  0.5727149724980554  1.0000
  C   C11       1.0  0.818989337645313  0.7156779442372878  0.4272850267466726  1.0000
  C   C12       1.0  0.6810106627135084  0.7843220558819776  0.927285027740916  1.0000
  C   C13       1.0  0.818989337645313  0.2843220561456138  0.927285027740916  1.0000
  C   C14       1.0  0.6810106627135084  0.21567794450092403  0.4272850267466726  1.0000
  C   C15       1.0  0.18101066276004724  0.2843220561456138  0.5727149724980554  1.0000
  C   C16       1.0  0.3189893376918518  0.21567794450092403  0.0727149728756914  1.0000
  C   C17       1.0  0.15025665448359463  0.6120362692471314  0.9987948375011546  1.0000
  C   C18       1.0  0.3497433454698666  0.887963730872134  0.49879483787879053  1.0000
  C   C19       1.0  0.8497433454233277  0.6120362692471314  0.5012051613659375  1.0000
  C   C20       1.0  0.6502566544370559  0.887963730872134  0.0012051617435734692  1.0000
  C   C21       1.0  0.8497433454233277  0.3879637311357701  0.0012051617435734692  1.0000
  C   C22       1.0  0.6502566544370559  0.11203626860059365  0.5012051613659375  1.0000
  C   C23       1.0  0.15025665448359463  0.3879637311357701  0.49879483787879053  1.0000
  C   C24       1.0  0.3497433454698666  0.11203626860059365  0.9987948375011546  1.0000
  C   C25       1.0  0.07614671019215336  0.5979401023057194  0.9948021512895081  1.0000
  C   C26       1.0  0.4238532897613079  0.9020598969033718  0.4948021516671441  1.0000
  C   C27       1.0  0.923853289714769  0.5979401023057194  0.5051978489494633  1.0000
  C   C28       1.0  0.5761467106440523  0.9020598969033718  0.005197849327099314  1.0000
  C   C29       1.0  0.923853289714769  0.40205989716700813  0.005197849327099314  1.0000
  C   C30       1.0  0.5761467106440523  0.09794010256935563  0.5051978489494633  1.0000
  C   C31       1.0  0.07614671019215336  0.40205989716700813  0.4948021516671441  1.0000
  C   C32       1.0  0.4238532897613079  0.09794010256935563  0.9948021512895081  1.0000
  C   C33       1.0  0.19199168322039145  0.5204205484537737  0.9295374986702772  1.0000
  C   C34       1.0  0.3080083167330698  0.9795794516654918  0.4295374990479132  1.0000
  C   C35       1.0  0.8080083166865311  0.5204205484537737  0.5704625015686942  1.0000
  C   C36       1.0  0.6919916831738526  0.9795794516654918  0.07046250057445076  1.0000
  C   C37       1.0  0.8080083166865311  0.47957945192912793  0.07046250057445076  1.0000
  C   C38       1.0  0.6919916831738526  0.02042054780723585  0.5704625015686942  1.0000
  C   C39       1.0  0.19199168322039145  0.47957945192912793  0.4295374990479132  1.0000
  C   C40       1.0  0.3080083167330698  0.02042054780723585  0.9295374986702772  1.0000
  C   C41       1.0  0.26076362429660027  0.5345461904719585  0.937512625898316  1.0000
  C   C42       1.0  0.23923637565686096  0.9654538096473068  0.4375126249040725  1.0000
  C   C43       1.0  0.7392363756103222  0.5345461904719585  0.5624873743406555  1.0000
  C   C44       1.0  0.7607636242500616  0.9654538096473068  0.062487374718291515  1.0000
  C   C45       1.0  0.7392363756103222  0.46545380991094304  0.062487374718291515  1.0000
  C   C46       1.0  0.7607636242500616  0.03454619073559478  0.5624873743406555  1.0000
  C   C47       1.0  0.26076362429660027  0.46545380991094304  0.4375126249040725  1.0000
  C   C48       1.0  0.23923637565686096  0.03454619073559478  0.937512625898316  1.0000
  N   N1        1.0  0.28900428586432847  0.6331914276402767  0.012712687699201763  1.0000
  N   N2        1.0  0.21099571408913276  0.8668085724789886  0.5127126886934452  1.0000
  N   N3        1.0  0.710995714042594  0.6331914276402767  0.4872873119231622  1.0000
  N   N4        1.0  0.7890042858177897  0.8668085724789886  0.9872873115455262  1.0000
  N   N5        1.0  0.710995714042594  0.36680857274262485  0.9872873115455262  1.0000
  N   N6        1.0  0.7890042858177897  0.1331914269937389  0.4872873119231622  1.0000
  N   N7        1.0  0.28900428586432847  0.36680857274262485  0.5127126886934452  1.0000
  N   N8        1.0  0.21099571408913276  0.1331914269937389  0.012712687699201763  1.0000
  F   F1        1.0  0.3915407053493874  0.6893004464612031  0.21752913547401675  1.0000
  F   F2        1.0  0.10845929460407387  0.8106995527478881  0.7175291350963807  1.0000
  F   F3        1.0  0.6084592945575351  0.6893004464612031  0.28247086552022665  1.0000
  F   F4        1.0  0.8915407053028486  0.8106995527478881  0.7824708651425907  1.0000
  F   F5        1.0  0.6084592945575351  0.3106995530115243  0.7824708651425907  1.0000
  F   F6        1.0  0.8915407053028486  0.18930044672483945  0.28247086552022665  1.0000
  F   F7        1.0  0.3915407053493874  0.3106995530115243  0.7175291350963807  1.0000
  F   F8        1.0  0.10845929460407387  0.18930044672483945  0.21752913547401675  1.0000
  F   F9        1.0  0.4846432961901229  0.6272834677902304  0.05176400541651722  1.0000
  F   F10       1.0  0.015356703763338362  0.8727165323290349  0.5517640050388812  1.0000
  F   F11       1.0  0.5153567037167996  0.6272834677902304  0.4482359942058468  1.0000
  F   F12       1.0  0.984643296642022  0.8727165323290349  0.9482359938282108  1.0000
  F   F13       1.0  0.5153567037167996  0.3727165325926712  0.9482359938282108  1.0000
  F   F14       1.0  0.984643296642022  0.12728346714369254  0.4482359942058468  1.0000
  F   F15       1.0  0.4846432961901229  0.3727165325926712  0.5517640050388812  1.0000
  F   F16       1.0  0.015356703763338362  0.12728346714369254  0.05176400541651722  1.0000
  F   F17       1.0  0.4090201600205961  0.7761154323286732  0.9354063053955781  1.0000
  F   F18       1.0  0.09097983993286514  0.7238845677905921  0.4354063057732142  1.0000
  F   F19       1.0  0.5909798398863264  0.7761154323286732  0.5645936934715138  1.0000
  F   F20       1.0  0.9090201599740574  0.7238845677905921  0.06459369384914983  1.0000
  F   F21       1.0  0.5909798398863264  0.22388456805422838  0.06459369384914983  1.0000
  F   F22       1.0  0.9090201599740574  0.2761154325923095  0.5645936934715138  1.0000
  F   F23       1.0  0.4090201600205961  0.22388456805422838  0.4354063057732142  1.0000
  F   F24       1.0  0.09097983993286514  0.2761154325923095  0.9354063053955781  1.0000
  F   F25       1.0  0.3976895412656658  0.4882969452604599  0.13541397507993913  1.0000
  F   F26       1.0  0.1023104586877954  0.011703055386077887  0.6354139747023031  1.0000
  F   F27       1.0  0.6023104586412567  0.4882969452604599  0.3645860259143043  1.0000
  F   F28       1.0  0.8976895412191271  0.011703055386077887  0.8645860255366683  1.0000
  F   F29       1.0  0.6023104586412567  0.5117030551224416  0.8645860255366683  1.0000
  F   F30       1.0  0.8976895412191271  0.9882969449968237  0.3645860259143043  1.0000
  F   F31       1.0  0.3976895412656658  0.5117030551224416  0.6354139747023031  1.0000
  F   F32       1.0  0.1023104586877954  0.9882969449968237  0.13541397507993913  1.0000
  S   S1        1.0  0.404465612810016  0.6271050773150834  0.021555200759681283  1.0000
  S   S2        1.0  0.09553438714344524  0.872894922804182  0.5215552003820453  1.0000
  S   S3        1.0  0.5955343870969064  0.6271050773150834  0.4784448002345621  1.0000
  S   S4        1.0  0.9044656127634771  0.872894922804182  0.9784447998569261  1.0000
  S   S5        1.0  0.5955343870969064  0.37289492306781824  0.9784447998569261  1.0000
  S   S6        1.0  0.9044656127634771  0.12710507666854554  0.4784448002345621  1.0000
  S   S7        1.0  0.404465612810016  0.37289492306781824  0.5215552003820453  1.0000
  S   S8        1.0  0.09553438714344524  0.12710507666854554  0.021555200759681283  1.0000
