data_image0
_chemical_formula_structural       H56C24N8O8Cl4
_chemical_formula_sum              "H56 C24 N8 O8 Cl4"
_cell_length_a       8.175701930241882
_cell_length_b       10.11691468015563
_cell_length_c       11.821118061851305
_cell_angle_alpha    90.0
_cell_angle_beta     109.8987707198435
_cell_angle_gamma    90.0

_space_group_name_H-M_alt    "P 1"
_space_group_IT_number       1

loop_
  _space_group_symop_operation_xyz
  'x, y, z'

loop_
  _atom_site_type_symbol
  _atom_site_label
  _atom_site_symmetry_multiplicity
  _atom_site_fract_x
  _atom_site_fract_y
  _atom_site_fract_z
  _atom_site_occupancy
  H   H1        1.0  0.22134699496782792  0.4198716233450192  0.13451055355100214  1.0000
  H   H2        1.0  0.7213469951336111  0.9198716233373276  0.13451055397148257  1.0000
  H   H3        1.0  0.7786530053973568  0.4198716233450192  0.8654894461185129  1.0000
  H   H4        1.0  0.27865300523157377  0.9198716233373276  0.8654894456980325  1.0000
  H   H5        1.0  0.3917640469297664  0.22280385782252393  0.10218322037941503  1.0000
  H   H6        1.0  0.8917640470955495  0.7228038578148324  0.10218322079989545  1.0000
  H   H7        1.0  0.6082359534354186  0.22280385782252393  0.8978167792901002  1.0000
  H   H8        1.0  0.10823595371620598  0.7228038578148324  0.8978167797692724  1.0000
  H   H9        1.0  0.5691350839700645  0.2856770489197741  0.22614949340175336  1.0000
  H   H10       1.0  0.06913508380428139  0.7856770489120825  0.22614949298127293  1.0000
  H   H11       1.0  0.4308649151733773  0.2856770489197741  0.7738505062705813  1.0000
  H   H12       1.0  0.9308649153391605  0.7856770489120825  0.7738505066910617  1.0000
  H   H13       1.0  0.4907254577783051  0.3774829946417273  0.0889089171418742  1.0000
  H   H14       1.0  0.9907254574975176  0.8774829946340358  0.08890891666270172  1.0000
  H   H15       1.0  0.5092745430334504  0.3774829946417273  0.9110910834272938  1.0000
  H   H16       1.0  0.009274542867667232  0.8774829946340358  0.9110910830068133  1.0000
  H   H17       1.0  0.28542740837852515  0.5651043100337833  0.39892276347953903  1.0000
  H   H18       1.0  0.7854274085443083  0.0651043100414748  0.3989227639000195  1.0000
  H   H19       1.0  0.7145725919866598  0.5651043100337833  0.601077236189976  1.0000
  H   H20       1.0  0.21457259182087662  0.0651043100414748  0.6010772357694957  1.0000
  H   H21       1.0  0.17920996061787897  0.41295195739811585  0.403751623954235  1.0000
  H   H22       1.0  0.679209960783662  0.9129519573904242  0.40375162437471546  1.0000
  H   H23       1.0  0.820790039747306  0.41295195739811585  0.5962483757152801  1.0000
  H   H24       1.0  0.3207900395815228  0.9129519573904242  0.5962483752947997  1.0000
  H   H25       1.0  0.11975018695798624  0.5054769148178022  0.2656319321713715  1.0000
  H   H26       1.0  0.6197501866771987  0.005476914825493777  0.26563193169219895  1.0000
  H   H27       1.0  0.8802498126320263  0.5054769148178022  0.7343680684006161  1.0000
  H   H28       1.0  0.380249812466243  0.005476914825493777  0.7343680679801354  1.0000
  H   H29       1.0  0.08588730435949998  0.16964622755656156  0.36482501398045275  1.0000
  H   H30       1.0  0.585887304525283  0.66964622754887  0.3648250144009332  1.0000
  H   H31       1.0  0.914112694783942  0.16964622755656156  0.6351749856918818  1.0000
  H   H32       1.0  0.4141126946181587  0.66964622754887  0.6351749852714014  1.0000
  H   H33       1.0  0.3968248349145988  0.11931992689113301  0.4163303935642344  1.0000
  H   H34       1.0  0.8968248346338112  0.6193199268834415  0.4163303930850619  1.0000
  H   H35       1.0  0.6031751646754138  0.11931992689113301  0.5836696070077532  1.0000
  H   H36       1.0  0.1031751645096306  0.6193199268834415  0.5836696065872727  1.0000
  H   H37       1.0  0.34629501649267047  0.037371686126959  0.2743107544167082  1.0000
  H   H38       1.0  0.8462950166584536  0.5373716861192674  0.2743107548371886  1.0000
  H   H39       1.0  0.6537049826507713  0.037371686126959  0.7256892452556264  1.0000
  H   H40       1.0  0.1537049824849883  0.5373716861192674  0.7256892448351461  1.0000
  H   H41       1.0  0.28178252357996575  0.9657310858975935  0.39101495437259753  1.0000
  H   H42       1.0  0.7817825237457489  0.46573108590528495  0.3910149547930779  1.0000
  H   H43       1.0  0.7182174767852192  0.9657310858975935  0.6089850452969175  1.0000
  H   H44       1.0  0.21821747706600664  0.46573108590528495  0.60898504577609  1.0000
  H   H45       1.0  0.7789166438421624  0.1640866561083288  0.09622231147984929  1.0000
  H   H46       1.0  0.2789166436763793  0.6640866561006372  0.09622231105936888  1.0000
  H   H47       1.0  0.22108335574785  0.1640866561083288  0.9037776890921382  1.0000
  H   H48       1.0  0.7210833554670627  0.6640866561006372  0.9037776886129659  1.0000
  H   H49       1.0  0.8928907776266354  0.31474406186758674  0.09984292452859776  1.0000
  H   H50       1.0  0.39289077790742283  0.8147440618598951  0.09984292500777026  1.0000
  H   H51       1.0  0.10710922273854961  0.31474406186758674  0.9001570751409174  1.0000
  H   H52       1.0  0.6071092229043328  0.8147440618598951  0.9001570755613979  1.0000
  H   H53       1.0  0.8565824385165857  0.2578169829895092  0.23339344762265649  1.0000
  H   H54       1.0  0.3565824387973731  0.7578169829818177  0.23339344810182897  1.0000
  H   H55       1.0  0.1434175618485993  0.2578169829895092  0.7666065520468588  1.0000
  H   H56       1.0  0.6434175615678117  0.7578169829818177  0.7666065515676861  1.0000
  C   C1        1.0  0.4530973878557336  0.31277015968185706  0.15054345027443997  1.0000
  C   C2        1.0  0.9530973880215167  0.8127701596741654  0.1505434506949204  1.0000
  C   C3        1.0  0.5469026112877081  0.31277015968185706  0.8494565493978945  1.0000
  C   C4        1.0  0.04690261156849579  0.8127701596741654  0.8494565498770672  1.0000
  C   C5        1.0  0.3649710187703164  0.4036346148109635  0.3141422248165927  1.0000
  C   C6        1.0  0.8649710201578427  0.903634614803272  0.3141422252342536  1.0000
  C   C7        1.0  0.6350289803731254  0.4036346148109635  0.685857774855742  1.0000
  C   C8        1.0  0.13502898065391294  0.903634614803272  0.6858577753349144  1.0000
  C   C9        1.0  0.22721814288666461  0.47676496861845646  0.3466387360949299  1.0000
  C   C10       1.0  0.7272181442741908  0.9767649686107649  0.34663873651259086  1.0000
  C   C11       1.0  0.7727818562567773  0.47676496861845646  0.6533612635774048  1.0000
  C   C12       1.0  0.2727818560909941  0.9767649686107649  0.6533612631569242  1.0000
  C   C13       1.0  0.2998522365351149  0.059168445017546756  0.3487698929119848  1.0000
  C   C14       1.0  0.7998522367008981  0.5591684450098552  0.3487698933324652  1.0000
  C   C15       1.0  0.7001477638300699  0.059168445017546756  0.6512301067575303  1.0000
  C   C16       1.0  0.20014776411085744  0.5591684450098552  0.6512301072367027  1.0000
  C   C17       1.0  0.052630385456914  0.15221373893965773  0.18545725525789822  1.0000
  C   C18       1.0  0.5526303851761265  0.6522137389319662  0.18545725477872574  1.0000
  C   C19       1.0  0.9473696153548414  0.15221373893965773  0.8145427453112697  1.0000
  C   C20       1.0  0.4473696151890584  0.6522137389319662  0.8145427448907894  1.0000
  C   C21       1.0  0.884427464452661  0.2273413370295042  0.1527997545047368  1.0000
  C   C22       1.0  0.38442746473344847  0.7273413370218127  0.1527997549839093  1.0000
  C   C23       1.0  0.11557253469078087  0.2273413370295042  0.8472002451675976  1.0000
  C   C24       1.0  0.615572534856564  0.7273413370218127  0.8472002455880783  1.0000
  N   N1        1.0  0.3337747449008432  0.3816463518836955  0.1962034718844608  1.0000
  N   N2        1.0  0.8337747450666263  0.8816463518760038  0.19620347230494117  1.0000
  N   N3        1.0  0.6662252554643417  0.3816463518836955  0.8037965277850544  1.0000
  N   N4        1.0  0.1662252557451292  0.8816463518760038  0.8037965282642269  1.0000
  N   N5        1.0  0.13797476197902792  0.13122339981813286  0.30333187535971945  1.0000
  N   N6        1.0  0.6379747616982404  0.6312233998104414  0.30333187488054697  1.0000
  N   N7        1.0  0.8620252388327276  0.13122339981813286  0.6966681252094487  1.0000
  N   N8        1.0  0.3620252386669445  0.6312233998104414  0.6966681247889682  1.0000
  O   O1        1.0  0.5040234546706346  0.3650400420242734  0.39176034985825553  1.0000
  O   O2        1.0  0.004023454504851485  0.8650400420165819  0.3917603494377752  1.0000
  O   O3        1.0  0.49597654491937787  0.3650400420242734  0.608239650713732  1.0000
  O   O4        1.0  0.9959765446385904  0.8650400420165819  0.6082396502345595  1.0000
  O   O5        1.0  0.11307716116893586  0.110922660265307  0.10746898724171142  1.0000
  O   O6        1.0  0.613077161334719  0.6109226602576154  0.10746898766219183  1.0000
  O   O7        1.0  0.8869228391962489  0.110922660265307  0.8925310124278036  1.0000
  O   O8        1.0  0.3869228394770365  0.6109226602576154  0.8925310129069761  1.0000
  Cl  Cl1       1.0  0.0  0.5098265847904389  0.0  1.0000
  Cl  Cl2       1.0  0.5000000001657832  0.009826584798130441  4.204804231211607e-10  1.0000
  Cl  Cl3       1.0  0.9999999998525084  0.2555513090439771  0.5000000003153398  1.0000
  Cl  Cl4       1.0  0.4999999995717209  0.7555513090362855  0.49999999983616733  1.0000
