data_image0
_chemical_formula_structural       H34C66O8Br4
_chemical_formula_sum              "H34 C66 O8 Br4"
_cell_length_a       18.03087617147736
_cell_length_b       13.878902990862166
_cell_length_c       5.4867037281653905
_cell_angle_alpha    88.95385852799882
_cell_angle_beta     90.87457570874933
_cell_angle_gamma    111.1724479625053

_space_group_name_H-M_alt    "P 1"
_space_group_IT_number       1

loop_
  _space_group_symop_operation_xyz
  'x, y, z'

loop_
  _atom_site_type_symbol
  _atom_site_label
  _atom_site_symmetry_multiplicity
  _atom_site_fract_x
  _atom_site_fract_y
  _atom_site_fract_z
  _atom_site_occupancy
  H   H1        1.0  0.1487245205574817  0.7684657256953071  0.10756888960140573  1.0000
  H   H2        1.0  0.8512754794693509  0.23153427436008372  0.8924311106135642  1.0000
  H   H3        1.0  0.006783801981032865  0.7527387766188439  0.15196789223972396  1.0000
  H   H4        1.0  0.9932161980457997  0.2472612234365471  0.848032107975246  1.0000
  H   H5        1.0  0.9269823050489708  0.6571781935784659  0.4996671963694861  1.0000
  H   H6        1.0  0.07301769497786179  0.3428218064769251  0.500332803845484  1.0000
  H   H7        1.0  0.9839731061413632  0.5675390947203232  0.8086051373518786  1.0000
  H   H8        1.0  0.01602689388546938  0.4324609053350678  0.19139486286309138  1.0000
  H   H9        1.0  0.23283722185983108  0.4803320593691601  0.3380529541264548  1.0000
  H   H10       1.0  0.7671627781670015  0.5196679406862307  0.6619470460885152  1.0000
  H   H11       1.0  0.3183500562546923  0.3761545747804896  0.32147524251664306  1.0000
  H   H12       1.0  0.6816499437721404  0.6238454252749014  0.678524757698327  1.0000
  H   H13       1.0  0.42594937059082216  0.5011630562488962  0.011589866993431555  1.0000
  H   H14       1.0  0.5740506294280953  0.49883694382815463  0.9884101313988445  1.0000
  H   H15       1.0  0.33903102645644634  0.6044222550376932  0.028250679158604214  1.0000
  H   H16       1.0  0.6609689735703863  0.3955777450176977  0.9717493210563658  1.0000
  H   H17       1.0  0.2599994213304779  0.6821222776354523  0.8158916277308509  1.0000
  H   H18       1.0  0.7400005786963548  0.3178777224199386  0.18410837248411907  1.0000
  H   H19       1.0  0.38268853828803584  0.7801392947267396  0.5901557363603054  1.0000
  H   H20       1.0  0.6173114617387969  0.21986070532865132  0.4098442638546645  1.0000
  H   H21       1.0  0.5049300124567885  0.755327820744844  0.7546451119153418  1.0000
  H   H22       1.0  0.4950699875700442  0.24467217931054697  0.24535488829962804  1.0000
  H   H23       1.0  0.5638766586380178  0.8308350405573367  0.14851794641158247  1.0000
  H   H24       1.0  0.43612334138881487  0.1691649594980542  0.8514820538033876  1.0000
  H   H25       1.0  0.504516086345931  0.9328366457857592  0.3898823218187366  1.0000
  H   H26       1.0  0.49548391367298616  0.06716335429129161  0.6101176765735395  1.0000
  H   H27       1.0  0.29723283377621723  0.08978197676062531  0.6627838533396848  1.0000
  H   H28       1.0  0.7027671662506155  0.9102180232947658  0.33721614687528517  1.0000
  H   H29       1.0  0.24058678287235238  0.2291362101129934  0.6606842603483576  1.0000
  H   H30       1.0  0.7594132171544804  0.7708637899423975  0.3393157398666124  1.0000
  H   H31       1.0  0.14570794616087943  0.132217525035888  0.37907435311567184  1.0000
  H   H32       1.0  0.8542920538659532  0.867782475019503  0.6209256470992982  1.0000
  H   H33       1.0  0.20924554746153728  0.9999902618005557  0.39197940492314787  1.0000
  H   H34       1.0  0.7907544525652954  9.738254835239496e-06  0.6080205952918222  1.0000
  C   C1        1.0  0.14584061347725125  0.5714783261396572  0.7766238656250172  1.0000
  C   C2        1.0  0.8541593865495815  0.42852167391573365  0.22337613458995276  1.0000
  C   C3        1.0  0.2804804033690654  0.5503587006070668  0.684359177457657  1.0000
  C   C4        1.0  0.7195195966577673  0.44964129944832415  0.31564082275731303  1.0000
  C   C5        1.0  0.2743627097774058  0.4846548391867738  0.487975720602937  1.0000
  C   C6        1.0  0.7256372902494268  0.515345160868617  0.512024279612033  1.0000
  C   C7        1.0  0.32244749729377026  0.4256378103920651  0.47692152418639283  1.0000
  C   C8        1.0  0.6775525027330624  0.5743621896633259  0.523078476028577  1.0000
  C   C9        1.0  0.3771457495767727  0.43326949021639344  0.6648857312456361  1.0000
  C   C10       1.0  0.6228542504500599  0.5667305098389975  0.3351142689693338  1.0000
  C   C11       1.0  0.3831994318843393  0.4958685579632308  0.8653779588546554  1.0000
  C   C12       1.0  0.6168005681424933  0.50413144209216  0.1346220413603146  1.0000
  C   C13       1.0  0.33444851748567284  0.5542199867706262  0.8736229047636488  1.0000
  C   C14       1.0  0.6655514825411599  0.44578001328476474  0.12637709545132125  1.0000
  C   C15       1.0  0.23217638974376456  0.6183468623416501  0.6872671799389383  1.0000
  C   C16       1.0  0.7678236101008762  0.38165313694262143  0.3127328202488417  1.0000
  C   C17       1.0  0.22446187740736662  0.6699407199740296  0.44282184040796746  1.0000
  C   C18       1.0  0.7755381226194661  0.33005928008136143  0.5571781598070026  1.0000
  C   C19       1.0  0.1127720045474831  0.7249701904628756  0.2588983162531004  1.0000
  C   C20       1.0  0.8872279949132196  0.2750298095472966  0.7411016839782952  1.0000
  C   C21       1.0  0.034006344614315225  0.7169434735839237  0.2867617197723594  1.0000
  C   C22       1.0  0.9659936554125174  0.2830565264714672  0.7132382804426105  1.0000
  C   C23       1.0  0.9882517252462566  0.6613257337631562  0.4838924618057203  1.0000
  C   C24       1.0  0.011748274598384019  0.3386742655211152  0.5161075383820596  1.0000
  C   C25       1.0  0.019626515455809828  0.6113003712070143  0.6568729162191332  1.0000
  C   C26       1.0  0.9803734845710228  0.3886996288483765  0.3431270839958367  1.0000
  C   C27       1.0  0.09834098752771346  0.618517637612863  0.6271644859848964  1.0000
  C   C28       1.0  0.9016590124991192  0.38148236244252803  0.37283551423007355  1.0000
  C   C29       1.0  0.1441791625812232  0.6750893178960453  0.4316161690289034  1.0000
  C   C30       1.0  0.8558208374456094  0.3249106821593456  0.5683838311860666  1.0000
  C   C31       1.0  0.36303387011325766  0.9729942737263043  0.22631855676059484  1.0000
  C   C32       1.0  0.636966129913575  0.0270057263290865  0.7736814434543751  1.0000
  C   C33       1.0  0.2588991071582481  0.037596493444461594  0.030347457793490296  1.0000
  C   C34       1.0  0.7411008928685846  0.9624035066109293  0.9696525424214797  1.0000
  C   C35       1.0  0.26350455328688804  0.09916336927429496  0.8180080528521354  1.0000
  C   C36       1.0  0.7364954467399447  0.9008366307810959  0.18199194736283464  1.0000
  C   C37       1.0  0.23220039286465927  0.17680158891784337  0.8164540333042325  1.0000
  C   C38       1.0  0.7677996071621733  0.8231984111375477  0.18354596691073755  1.0000
  C   C39       1.0  0.19105123058515616  0.1890782869031696  0.020731696784448004  1.0000
  C   C40       1.0  0.8089487694416766  0.8109217131522213  0.979268303430522  1.0000
  C   C41       1.0  0.1806900481246197  0.12433158685539834  0.22623874836655591  1.0000
  C   C42       1.0  0.8193099519022129  0.8756684131999926  0.773761251848414  1.0000
  C   C43       1.0  0.21630780884275289  0.05084559410035716  0.23347025640558117  1.0000
  C   C44       1.0  0.7836921911761644  0.9491544059766936  0.766529741986695  1.0000
  C   C45       1.0  0.3036012265641431  0.9711077041358462  0.037990790945247425  1.0000
  C   C46       1.0  0.6963987734626895  0.02889229591954472  0.9620092092697226  1.0000
  C   C47       1.0  0.30566235385876395  0.9003939132226466  0.8456150924108563  1.0000
  C   C48       1.0  0.6943376461680687  0.09960608683274441  0.1543849078041136  1.0000
  C   C49       1.0  0.4080292526345417  0.8116531286785696  0.7660462551888751  1.0000
  C   C50       1.0  0.591970747392291  0.18834687137682138  0.23395374502609464  1.0000
  C   C51       1.0  0.476416807126245  0.7981951637505026  0.8588542355430457  1.0000
  C   C52       1.0  0.5235831929005876  0.20180483630488838  0.1411457646719241  1.0000
  C   C53       1.0  0.5101076607350429  0.8412988613221694  0.08183446005502316  1.0000
  C   C54       1.0  0.4898923392917897  0.15870113873322167  0.9181655401599467  1.0000
  C   C55       1.0  0.476354303521503  0.8985462690408851  0.21959747415685693  1.0000
  C   C56       1.0  0.5236456965053297  0.10145373101450589  0.7804025260581131  1.0000
  C   C57       1.0  0.4082651813908573  0.9114008540277972  0.12831063895933187  1.0000
  C   C58       1.0  0.5917348186359753  0.08859914602759375  0.8716893612556381  1.0000
  C   C59       1.0  0.37482571505161716  0.8691356037562994  0.9021934032421259  1.0000
  C   C60       1.0  0.6251742849752155  0.13086439629909152  0.09780659697284394  1.0000
  C   C61       1.0  0.008058647080903487  0.9130180139375573  0.441771010924787  1.0000
  C   C62       1.0  0.9919413529380137  0.08698198613949353  0.5582289874674892  1.0000
  C   C63       1.0  0.03700515966735403  0.9566887999132337  0.6507177837966652  1.0000
  C   C64       1.0  0.9629948403594787  0.04331120014215712  0.3492822164183047  1.0000
  C   C65       1.0  0.9701635851582547  0.9552435748047009  0.2931252902182661  1.0000
  C   C66       1.0  0.029836414868577958  0.04475642525069003  0.7068747099967038  1.0000
  O   O1        1.0  0.12206220474904982  0.5078069345060089  0.9431076127181193  1.0000
  O   O2        1.0  0.8779377952777828  0.492193065549382  0.056892387496850744  1.0000
  O   O3        1.0  0.27500567876985893  0.6981074689834904  0.28305886806917563  1.0000
  O   O4        1.0  0.7249943212569737  0.3018925310719004  0.7169411321457944  1.0000
  O   O5        1.0  0.37765136567568647  0.023662247211574235  0.41616369415355786  1.0000
  O   O6        1.0  0.6223486343511461  0.9763377528438166  0.583836306061412  1.0000
  O   O7        1.0  0.2556718761913046  0.8675591035578998  0.679962852242489  1.0000
  O   O8        1.0  0.744328123835528  0.13244089649749113  0.32003714797248095  1.0000
  Br  Br1       1.0  0.4464821289740958  0.35753442136762686  0.6443490948807948  1.0000
  Br  Br2       1.0  0.5535178710448215  0.642465578709424  0.35565090351148126  1.0000
  Br  Br3       1.0  0.15276426752707398  0.2993758654528603  0.019864876204516047  1.0000
  Br  Br4       1.0  0.8472357324997587  0.7006241346025307  0.980135124010454  1.0000
