data_image0
_chemical_formula_structural       H46C44N6O6Cl2
_chemical_formula_sum              "H46 C44 N6 O6 Cl2"
_cell_length_a       7.76254861725862
_cell_length_b       11.024638682572977
_cell_length_c       12.946069265319197
_cell_angle_alpha    68.30027090270151
_cell_angle_beta     84.44322043761329
_cell_angle_gamma    70.48012212058588

_space_group_name_H-M_alt    "P 1"
_space_group_IT_number       1

loop_
  _space_group_symop_operation_xyz
  'x, y, z'

loop_
  _atom_site_type_symbol
  _atom_site_label
  _atom_site_symmetry_multiplicity
  _atom_site_fract_x
  _atom_site_fract_y
  _atom_site_fract_z
  _atom_site_occupancy
  H   H1        1.0  0.44852380039274403  0.1083296417146379  0.3612066767864765  1.0000
  H   H2        1.0  0.5514761994395201  0.8916703582313659  0.6387933232874659  1.0000
  H   H3        1.0  0.7472545938390512  0.4483024971759313  0.24327438534767554  1.0000
  H   H4        1.0  0.25274540599321316  0.5516975027700723  0.7567256147262668  1.0000
  H   H5        1.0  0.7202772626213639  0.28598522543833654  0.2750120451443284  1.0000
  H   H6        1.0  0.2797227372109004  0.714014774507667  0.724987954929614  1.0000
  H   H7        1.0  0.7109322929527031  0.35135295808966716  0.38325932415000585  1.0000
  H   H8        1.0  0.2890677068795613  0.6486470418563366  0.6167406759239364  1.0000
  H   H9        1.0  0.9346089640434685  0.1682610889145795  0.12089962122473524  1.0000
  H   H10       1.0  0.06539103578879564  0.8317389110314243  0.8791003788492071  1.0000
  H   H11       1.0  0.9434713170551711  0.6867149415708422  0.5973132918778506  1.0000
  H   H12       1.0  0.05652868277709314  0.3132850583751613  0.40268670819609176  1.0000
  H   H13       1.0  0.4775725097136492  0.7042624831802361  0.2551096711323202  1.0000
  H   H14       1.0  0.5224274901186152  0.29573751676576737  0.7448903289416222  1.0000
  H   H15       1.0  0.5878035183851171  0.5772231471722581  0.38279124143667337  1.0000
  H   H16       1.0  0.41219648144714705  0.4227768527737456  0.617208758637269  1.0000
  H   H17       1.0  0.3665124462888333  0.6943191753256257  0.38455662888727427  1.0000
  H   H18       1.0  0.633487553543431  0.305680824620378  0.615443371186668  1.0000
  H   H19       1.0  0.8822947983339774  0.7721914008705307  0.19534653160649582  1.0000
  H   H20       1.0  0.11770520149828703  0.2278085990754728  0.8046534684674466  1.0000
  H   H21       1.0  0.00031107205493927553  0.9846608236984375  0.30971772953919174  1.0000
  H   H22       1.0  0.999688927777325  0.015339176247566094  0.6902822705347507  1.0000
  H   H23       1.0  0.19374991691948606  0.5584646155742046  0.5043978924994571  1.0000
  H   H24       1.0  0.8062500829127783  0.4415353843717992  0.49560210757448514  1.0000
  H   H25       1.0  0.6269587535807886  0.8933492886132606  0.2890176764953604  1.0000
  H   H26       1.0  0.37304124625147594  0.1066507113327429  0.710982323578582  1.0000
  H   H27       1.0  0.6562079510851806  0.8509386450467789  0.49001860916260476  1.0000
  H   H28       1.0  0.3437920487159542  0.14906135526878714  0.5099813900796267  1.0000
  H   H29       1.0  0.06608243097086422  0.3781871561451682  0.9657626294327276  1.0000
  H   H30       1.0  0.9339175688614  0.6218128438008353  0.034237370641214765  1.0000
  H   H31       1.0  0.612169549593329  0.3622328787431937  0.08158221114682385  1.0000
  H   H32       1.0  0.38783045023893536  0.63776712120281  0.9184177889271185  1.0000
  H   H33       1.0  0.5601323385656912  0.8424890112348924  0.05704485963456598  1.0000
  H   H34       1.0  0.439867661266573  0.15751098871111135  0.9429551404393762  1.0000
  H   H35       1.0  0.42809430696059947  0.9620887898222508  0.11839672774664252  1.0000
  H   H36       1.0  0.5719056928716646  0.0379112101237531  0.8816032723272998  1.0000
  H   H37       1.0  0.3140929026921885  0.9393331462650246  0.9079476695713555  1.0000
  H   H38       1.0  0.6859070971089462  0.06066685405054152  0.09205232967087605  1.0000
  H   H39       1.0  0.18281197756692755  0.05373735348949456  0.9740001854994005  1.0000
  H   H40       1.0  0.8171880222653367  0.9462626464565091  0.02599981457454195  1.0000
  H   H41       1.0  0.08297610940536507  0.8435457234426089  0.03006108945951016  1.0000
  H   H42       1.0  0.9170238903957695  0.1564542768729572  0.9699389097827213  1.0000
  H   H43       1.0  0.17512140169327392  0.8505948556889569  0.14614872297797518  1.0000
  H   H44       1.0  0.8248785981389904  0.1494051442570468  0.8538512770959672  1.0000
  H   H45       1.0  0.3082358683923201  0.7370627513497261  0.07831548008511248  1.0000
  H   H46       1.0  0.6917641314399443  0.2629372485962775  0.9216845199888297  1.0000
  C   C1        1.0  0.3815444086619675  0.3374098751629077  0.14763641327630617  1.0000
  C   C2        1.0  0.618455591139167  0.6625901251526584  0.8523635859659254  1.0000
  C   C3        1.0  0.2653410561349264  0.41532623832073573  0.0359543539522367  1.0000
  C   C4        1.0  0.7346589436973379  0.5846737616252679  0.9640456461217056  1.0000
  C   C5        1.0  0.17228310708565253  0.5234544370617947  0.2196082499347293  1.0000
  C   C6        1.0  0.8277168940349764  0.4765455628816766  0.7803917501456241  1.0000
  C   C7        1.0  0.15943503400424025  0.23701594008868304  0.13528094607586721  1.0000
  C   C8        1.0  0.840564967116389  0.7629840598547883  0.8647190540044862  1.0000
  C   C9        1.0  0.2998801742555055  0.22248302690067967  0.20406035821330118  1.0000
  C   C10       1.0  0.7001198255767588  0.7775169730453239  0.7959396418606413  1.0000
  C   C11       1.0  0.33815041841320864  0.12041265984552137  0.30850975765244565  1.0000
  C   C12       1.0  0.6618495814190557  0.8795873401004823  0.6914902424214967  1.0000
  C   C13       1.0  0.471810132046037  0.4429092647920208  0.2772214991146868  1.0000
  C   C14       1.0  0.5281898677862273  0.5570907351539829  0.7227785009592554  1.0000
  C   C15       1.0  0.3517121346282452  0.43126256027414245  0.2123929284533752  1.0000
  C   C16       1.0  0.6482878652040189  0.5687374396718612  0.7876070716205672  1.0000
  C   C17       1.0  0.6733725810254781  0.3789303168739946  0.29605682933039607  1.0000
  C   C18       1.0  0.32662742009515067  0.6210696830694769  0.7039431707499573  1.0000
  C   C19       1.0  0.04946903386163354  0.15297318768396803  0.17143235379841382  1.0000
  C   C20       1.0  0.9505309659706306  0.8470268122620357  0.8285676462755285  1.0000
  C   C21       1.0  0.22900030244511313  0.03448818552772649  0.3442244724119316  1.0000
  C   C22       1.0  0.7709996973871515  0.965511814418277  0.6557755276620107  1.0000
  C   C23       1.0  0.9291189853172445  0.7053618100665873  0.509365372644638  1.0000
  C   C24       1.0  0.07088101451502  0.2946381898794163  0.4906346274293044  1.0000
  C   C25       1.0  0.05424440068495774  0.6592044931020673  0.3441512640795985  1.0000
  C   C26       1.0  0.9457555991473066  0.34079550684393634  0.6558487359943438  1.0000
  C   C27       1.0  0.4561919612649897  0.6342826314619727  0.3377172216745913  1.0000
  C   C28       1.0  0.5438080385672744  0.36571736848403097  0.662282778399351  1.0000
  C   C29       1.0  0.8940660657529953  0.7530851356858694  0.28323198940011673  1.0000
  C   C30       1.0  0.10593393407926892  0.24691486426013415  0.7167680106738257  1.0000
  C   C31       1.0  0.08575270671110939  0.050579136806835234  0.27769484054283544  1.0000
  C   C32       1.0  0.9142472931211549  0.9494208631391684  0.7223051595311069  1.0000
  C   C33       1.0  0.07117754124319775  0.6349662200124662  0.45739199152609616  1.0000
  C   C34       1.0  0.9288224585890666  0.3650337799335374  0.5426080085478462  1.0000
  C   C35       1.0  0.7514246027713929  0.8205769009654249  0.3366886860607101  1.0000
  C   C36       1.0  0.24857539660369757  0.17942309994347558  0.6633113140120507  1.0000
  C   C37       1.0  0.768471163164726  0.797466447126173  0.44938684159739717  1.0000
  C   C38       1.0  0.23152883666753835  0.2025335528198308  0.5506131584765452  1.0000
  C   C39       1.0  0.4585195760327511  0.9463258343966301  0.03827860475868681  1.0000
  C   C40       1.0  0.5414804237995132  0.05367416554937364  0.9617213953152555  1.0000
  C   C41       1.0  0.2849196053749434  0.9513041759447034  0.989113772113803  1.0000
  C   C42       1.0  0.715080394457321  0.048695824001300236  0.010886227960139319  1.0000
  C   C43       1.0  0.20865219354109196  0.8398123324403062  0.0649241190301764  1.0000
  C   C44       1.0  0.7913478075795372  0.16018766750316518  0.935075881050177  1.0000
  N   N1        1.0  0.15072682111187916  0.3462059859271897  0.03422727027321273  1.0000
  N   N2        1.0  0.8492731800087501  0.6537940140162816  0.9657727298071407  1.0000
  N   N3        1.0  0.3766970329086517  0.5347900733689605  0.32894429370660205  1.0000
  N   N4        1.0  0.6233029669236128  0.46520992657704324  0.6710557063673402  1.0000
  N   N5        1.0  0.1948075791174343  0.5877886970714227  0.2900989313099152  1.0000
  N   N6        1.0  0.80519242071483  0.4122113028745809  0.7099010687640271  1.0000
  O   O1        1.0  0.021624573744997107  0.5428417957723689  0.1780003355246591  1.0000
  O   O2        1.0  0.978375426087267  0.45715820417363473  0.8219996645492834  1.0000
  O   O3        1.0  0.5667710341889227  0.2830060445514003  0.12267766432193518  1.0000
  O   O4        1.0  0.433228965612212  0.7169939557641656  0.8773223349202964  1.0000
  O   O5        1.0  0.2808955725081332  0.5188562845463903  0.959674621771169  1.0000
  O   O6        1.0  0.7191044273241309  0.48114371539961337  0.04032537830277328  1.0000
  Cl  Cl1       1.0  0.2668449965736929  0.9087138881483615  0.47676438607747024  1.0000
  Cl  Cl2       1.0  0.7331550032585712  0.09128611179764215  0.5232356139964721  1.0000
