data_image0
_chemical_formula_structural       H96C48O40F12Br12
_chemical_formula_sum              "H96 C48 O40 F12 Br12"
_cell_length_a       12.898140081349181
_cell_length_b       20.892837997321553
_cell_length_c       8.377741335648565
_cell_angle_alpha    90.0
_cell_angle_beta     92.53787114930832
_cell_angle_gamma    90.0

_space_group_name_H-M_alt    "P 1"
_space_group_IT_number       1

loop_
  _space_group_symop_operation_xyz
  'x, y, z'

loop_
  _atom_site_type_symbol
  _atom_site_label
  _atom_site_symmetry_multiplicity
  _atom_site_fract_x
  _atom_site_fract_y
  _atom_site_fract_z
  _atom_site_occupancy
  H   H1        1.0  0.8824789592376154  0.08490683650672153  0.5738926396802536  1.0000
  H   H2        1.0  0.1175210405844076  0.5849068360921883  0.9261073610461608  1.0000
  H   H3        1.0  0.11752104090866694  0.9150931636214779  0.4261073606726329  1.0000
  H   H4        1.0  0.8824789595618748  0.41509316355737813  0.07389263930672561  1.0000
  H   H5        1.0  0.8935510998970164  0.168891902596113  0.6173136578188411  1.0000
  H   H6        1.0  0.10644889989301823  0.6688919026602127  0.8826863417127677  1.0000
  H   H7        1.0  0.10644889944187035  0.8311080975320864  0.38268634133557905  1.0000
  H   H8        1.0  0.8935511002532641  0.3311080974679867  0.11731365864011865  1.0000
  H   H9        1.0  0.003945300752496375  0.12665910587825596  0.5606144854674143  1.0000
  H   H10       1.0  0.9960546990375383  0.6266591054637227  0.9393855140641946  1.0000
  H   H11       1.0  0.9960546993617976  0.8733408942499434  0.43938551369066664  1.0000
  H   H12       1.0  0.003945300333336874  0.37334089418584365  0.06061448628503102  1.0000
  H   H13       1.0  0.9185556440019542  0.21042871296678903  0.1751944577575002  1.0000
  H   H14       1.0  0.08144435569318036  0.7104287130308887  0.3248055422181975  1.0000
  H   H15       1.0  0.08144435536892101  0.7895712866827773  0.8248055425917254  1.0000
  H   H16       1.0  0.9185556444531021  0.2895712866186777  0.6751944581346889  1.0000
  H   H17       1.0  0.016502490631446234  0.21210729871011869  0.3354616655286681  1.0000
  H   H18       1.0  0.9834975090636883  0.7121072987742183  0.16453833444702964  1.0000
  H   H19       1.0  0.9834975094828478  0.7878927014180807  0.664538333629413  1.0000
  H   H20       1.0  0.01650249108259412  0.287892701353981  0.8354616659058569  1.0000
  H   H21       1.0  0.8954130613131642  0.24727453592768545  0.36408200367126814  1.0000
  H   H22       1.0  0.10458693838197025  0.7472745359917851  0.13591799630442955  1.0000
  H   H23       1.0  0.10458693883311812  0.7527254642005139  0.6359179966816183  1.0000
  H   H24       1.0  0.8954130609889049  0.2527254641364142  0.8640820040447961  1.0000
  H   H25       1.0  0.18534953074247926  0.13176590036992236  0.8958517799263767  1.0000
  H   H26       1.0  0.8146504690475553  0.631765900434022  0.6041482196052324  1.0000
  H   H27       1.0  0.814650469403803  0.8682340997582769  0.1041482204265098  1.0000
  H   H28       1.0  0.1853495302913314  0.36823409969417725  0.3958517795491879  1.0000
  H   H29       1.0  0.14359575366188443  0.15257508244732784  0.09055924118813459  1.0000
  H   H30       1.0  0.8564042468086573  0.6525750820327946  0.40944075879122394  1.0000
  H   H31       1.0  0.856404246484398  0.8474249176808715  0.9094407591647519  1.0000
  H   H32       1.0  0.14359575333762506  0.3474249176167718  0.5905592415616625  1.0000
  H   H33       1.0  0.050813245288943064  0.12963793240282762  0.9409058353325926  1.0000
  H   H34       1.0  0.9491867545330799  0.6296379324669273  0.5590941653938217  1.0000
  H   H35       1.0  0.9491867548573394  0.8703620677253717  0.05909416502029371  1.0000
  H   H36       1.0  0.05081324561320242  0.37036206766127205  0.44090583495906477  1.0000
  H   H37       1.0  0.08863853195835568  0.9811187174584838  0.20511286830817257  1.0000
  H   H38       1.0  0.9113614677367788  0.48111871739438417  0.2948871316675251  1.0000
  H   H39       1.0  0.9113614681879267  0.018881282669715456  0.794887132044714  1.0000
  H   H40       1.0  0.08863853163409632  0.5188812827338151  0.7051128686817004  1.0000
  H   H41       1.0  0.0023466734280904048  0.0480265055483911  0.17713817690983114  1.0000
  H   H42       1.0  0.9976533262670442  0.5480265051338579  0.3228618230658665  1.0000
  H   H43       1.0  0.997653326718192  0.9519734945798082  0.8228618234430553  1.0000
  H   H44       1.0  0.002346673071842673  0.45197349451570856  0.6771381760885535  1.0000
  H   H45       1.0  0.11967676494955924  0.057782050966688495  0.29105861984961845  1.0000
  H   H46       1.0  0.8803232347455753  0.5577820510307882  0.2089413801260792  1.0000
  H   H47       1.0  0.8803232351967231  0.9422179491615108  0.7089413805032679  1.0000
  H   H48       1.0  0.11967676540070715  0.44221794909741113  0.7910586202268072  1.0000
  H   H49       1.0  0.5080151866414957  0.13470993219594263  0.984176685919998  1.0000
  H   H50       1.0  0.49198481395593463  0.6347099317814093  0.515823314810077  1.0000
  H   H51       1.0  0.49198481350478673  0.8652900679322567  0.015823314432888338  1.0000
  H   H52       1.0  0.5080151861903478  0.36529006786815704  0.48417668554280946  1.0000
  H   H53       1.0  0.40609590987925426  0.13377600450251478  0.12487317488375047  1.0000
  H   H54       1.0  0.5939040898158802  0.6337760045666144  0.3751268250919472  1.0000
  H   H55       1.0  0.5939040902350398  0.8662239951470516  0.8751268242743305  1.0000
  H   H56       1.0  0.4060959095549949  0.36622399556158486  0.6248731752572785  1.0000
  H   H57       1.0  0.40493362474422523  0.07760071466632965  0.9680037595449807  1.0000
  H   H58       1.0  0.5950663750777978  0.5776007147304293  0.5319962411814337  1.0000
  H   H59       1.0  0.5950663746266499  0.9223992854618698  0.03199624080424498  1.0000
  H   H60       1.0  0.4049336250684846  0.42239928539777  0.46800375917145265  1.0000
  H   H61       1.0  0.5105985238861421  0.9836061574131068  0.33087238979607697  1.0000
  H   H62       1.0  0.4894014758089923  0.4836061573490071  0.1691276101796207  1.0000
  H   H63       1.0  0.48940147622815183  0.01639384271509261  0.669127609362004  1.0000
  H   H64       1.0  0.51059852433729  0.5163938427791923  0.8308723901732658  1.0000
  H   H65       1.0  0.394605053836498  0.9935719825454652  0.20656374715526737  1.0000
  H   H66       1.0  0.6053949466340437  0.4935719824813655  0.29343625282409114  1.0000
  H   H67       1.0  0.605394946277796  0.006428017582734194  0.7934362520028136  1.0000
  H   H68       1.0  0.39460505351223857  0.5064280176468339  0.7065637475287952  1.0000
  H   H69       1.0  0.4244187154398421  0.049921855524544485  0.35652696670164563  1.0000
  H   H70       1.0  0.5755812850306996  0.5499218555886441  0.1434730332777129  1.0000
  H   H71       1.0  0.5755812846744518  0.9500781446036549  0.6434730324564354  1.0000
  H   H72       1.0  0.42441871511558277  0.4500781445395552  0.8565269670751735  1.0000
  H   H73       1.0  0.6727886960626844  0.1246558787434184  0.546137779483979  1.0000
  H   H74       1.0  0.32721130372735024  0.624655878807518  0.9538622200476298  1.0000
  H   H75       1.0  0.32721130330819076  0.8753441209061481  0.4538622208652465  1.0000
  H   H76       1.0  0.6727886963869438  0.3753441208420483  0.046137779110451166  1.0000
  H   H77       1.0  0.6926485365020262  0.20594389860064058  0.4956194125834224  1.0000
  H   H78       1.0  0.3073514631931083  0.7059438986647403  0.004380587392275408  1.0000
  H   H79       1.0  0.307351462868849  0.7940561010489258  0.5043805877658034  1.0000
  H   H80       1.0  0.6926485369211857  0.2940561014634591  0.9956194117658056  1.0000
  H   H81       1.0  0.6388760133608593  0.15101000545758658  0.34718796110676164  1.0000
  H   H82       1.0  0.3611239863342752  0.6510100050430533  0.15281203886893605  1.0000
  H   H83       1.0  0.36112398675343477  0.8489899946706126  0.6528120380513194  1.0000
  H   H84       1.0  0.6388760130365999  0.3489899946065131  0.8471879614802896  1.0000
  H   H85       1.0  0.5423742544811967  0.26499953384551145  0.6626779949750573  1.0000
  H   H86       1.0  0.45762574611623363  0.7649995339096111  0.837322005755018  1.0000
  H   H87       1.0  0.4576257456650858  0.7350004662826879  0.3373220053778292  1.0000
  H   H88       1.0  0.5423742540300488  0.23500046621858825  0.1626779945978685  1.0000
  H   H89       1.0  0.5864710289750898  0.1969937200742014  0.7700146132776493  1.0000
  H   H90       1.0  0.41352897081494483  0.6969937201383011  0.7299853862539598  1.0000
  H   H91       1.0  0.41352897113920417  0.8030062795753651  0.22998538588043177  1.0000
  H   H92       1.0  0.5864710285559304  0.3030062795112654  0.2700146140952659  1.0000
  H   H93       1.0  0.44938083542924256  0.20895116980085066  0.7312694794650672  1.0000
  H   H94       1.0  0.5506191651681877  0.7089511698649503  0.768730521265008  1.0000
  H   H95       1.0  0.5506191647170399  0.7910488303273487  0.2687305208878193  1.0000
  H   H96       1.0  0.4493808349780946  0.291048830263249  0.23126947908787837  1.0000
  C   C1        1.0  0.8945932215927929  0.1454444508874077  0.36936078501523517  1.0000
  C   C2        1.0  0.10540677887774877  0.6454444509515074  0.13063921496412337  1.0000
  C   C3        1.0  0.10540677855348941  0.8545555487621587  0.6306392153376513  1.0000
  C   C4        1.0  0.8945932212365452  0.35455554917669196  0.8693607841939576  1.0000
  C   C5        1.0  0.9191230031919729  0.12982859343224407  0.5403763679811233  1.0000
  C   C6        1.0  0.0808769973734691  0.6298285934963437  0.9596236315541465  1.0000
  C   C7        1.0  0.08087699692232123  0.8701714066959552  0.45962363117695776  1.0000
  C   C8        1.0  0.9191230027728132  0.3701714066318556  0.04037636879873995  1.0000
  C   C9        1.0  0.9331594118488203  0.20706415330241926  0.3044484923964054  1.0000
  C   C10       1.0  0.0668405878463142  0.707064153366519  0.19555150757929227  1.0000
  C   C11       1.0  0.06684058829746209  0.7929358463471471  0.6955515079564809  1.0000
  C   C12       1.0  0.9331594115245609  0.2929358462830475  0.8044484927699334  1.0000
  C   C13       1.0  0.1374129646523016  0.05255152460095447  0.04004482410840341  1.0000
  C   C14       1.0  0.8625870350428329  0.5525515246650541  0.45995517586729434  1.0000
  C   C15       1.0  0.8625870347185736  0.9474484755272448  0.9599551762408223  1.0000
  C   C16       1.0  0.1374129650714611  0.4474484754631452  0.5400448232907867  1.0000
  C   C17       1.0  0.13058926082401473  0.12058335015678465  0.987713269323339  1.0000
  C   C18       1.0  0.8694107397414271  0.6205833502208843  0.5122867302119307  1.0000
  C   C19       1.0  0.8694107392902793  0.8794166494927819  0.012286729834741954  1.0000
  C   C20       1.0  0.13058926040485522  0.3794166494286821  0.4877132701409558  1.0000
  C   C21       1.0  0.08395726733299427  0.03285488549176518  0.18681217127190497  1.0000
  C   C22       1.0  0.9160427323621402  0.5328548855558648  0.3131878287037927  1.0000
  C   C23       1.0  0.9160427328132882  0.9671451141578012  0.8131878290809814  1.0000
  C   C24       1.0  0.08395726778414214  0.4671451145723345  0.6868121716490937  1.0000
  C   C25       1.0  0.5178123917987343  0.05860641910672807  0.15647693306855118  1.0000
  C   C26       1.0  0.4821876078964002  0.5586064191708277  0.3435230669071465  1.0000
  C   C27       1.0  0.4821876083155597  0.9413935810214713  0.8435230660895298  1.0000
  C   C28       1.0  0.517812391474475  0.4413935809573716  0.656476933442079  1.0000
  C   C29       1.0  0.45661080880836424  0.1044257027350568  0.05197919784273712  1.0000
  C   C30       1.0  0.5433891916621775  0.6044257027991564  0.4480208021366214  1.0000
  C   C31       1.0  0.5433891913379182  0.8955742969145096  0.9480208025101493  1.0000
  C   C32       1.0  0.4566108084841049  0.39557429732904287  0.5519791982162651  1.0000
  C   C33       1.0  0.45966419784080953  0.018334305279594256  0.2690465266461156  1.0000
  C   C34       1.0  0.5403358018543251  0.518334305343694  0.2309534733295821  1.0000
  C   C35       1.0  0.5403358022734845  0.9816656948486051  0.7309534725119654  1.0000
  C   C36       1.0  0.4596641982919575  0.4816656947845054  0.7690465270233043  1.0000
  C   C37       1.0  0.5354472093819935  0.1796992103457326  0.5276666143932933  1.0000
  C   C38       1.0  0.46455279040804104  0.6796992104098323  0.9723333851383156  1.0000
  C   C39       1.0  0.46455279076428874  0.8203007897824668  0.47233338595959307  1.0000
  C   C40       1.0  0.5354472097062529  0.3203007897183671  0.027666614019765435  1.0000
  C   C41       1.0  0.6412397954745983  0.16466383984985875  0.4732500474108649  1.0000
  C   C42       1.0  0.35876020422053634  0.6646638399139585  0.02674995256483277  1.0000
  C   C43       1.0  0.3587602046396958  0.8353361602783406  0.5267499517472161  1.0000
  C   C44       1.0  0.6412397951503389  0.3353361602142409  0.9732500477843928  1.0000
  C   C45       1.0  0.5265477879556574  0.21389861494991327  0.683085274633682  1.0000
  C   C46       1.0  0.47345221264177295  0.7138986150140129  0.8169147260963933  1.0000
  C   C47       1.0  0.47345221219062505  0.7861013846996531  0.31691472571920454  1.0000
  C   C48       1.0  0.5265477875045095  0.28610138463555346  0.18308527425649318  1.0000
  O   O1        1.0  0.12087448318923993  0.043751585596805295  0.6120010566510794  1.0000
  O   O2        1.0  0.8791255166007949  0.543751585660905  0.8879989428805295  1.0000
  O   O3        1.0  0.8791255169250541  0.9562484145313941  0.3879989425070016  1.0000
  O   O4        1.0  0.12087448354548765  0.4562484144672944  0.11200105747235692  1.0000
  O   O5        1.0  0.3119565598269074  0.08445604614491392  0.6907312574673545  1.0000
  O   O6        1.0  0.6880434399631272  0.5844560462090136  0.8092687420642544  1.0000
  O   O7        1.0  0.688043440319375  0.9155439539832854  0.30926874288553197  1.0000
  O   O8        1.0  0.31195656015116674  0.4155439539191858  0.19073125709382657  1.0000
  O   O9        1.0  0.24170030907535714  0.14978366272696833  0.337427224807963  1.0000
  O   O10       1.0  0.7582996906197773  0.649783662791068  0.1625727751677347  1.0000
  O   O11       1.0  0.758299690295518  0.850216337401231  0.6625727755412626  1.0000
  O   O12       1.0  0.24170030952650504  0.3502163373371313  0.8374272251851517  1.0000
  O   O13       1.0  0.30432186738059  0.26870696124287746  0.4097934698005186  1.0000
  O   O14       1.0  0.6956781330899516  0.7687069613069771  0.09020653017883992  1.0000
  O   O15       1.0  0.6956781327656923  0.7312930388853218  0.5902065305523678  1.0000
  O   O16       1.0  0.30432186705633074  0.23129303882122218  0.9097934701740465  1.0000
  O   O17       1.0  0.8797639957766105  0.1389142595358311  0.9266366534409675  1.0000
  O   O18       1.0  0.12023600401342424  0.6389142595999308  0.5733633460906414  1.0000
  O   O19       1.0  0.12023600433768358  0.8610857405923682  0.07336334571711352  1.0000
  O   O20       1.0  0.879763995357451  0.36108574052826853  0.4266366542585842  1.0000
  O   O21       1.0  0.7109739760050453  0.1893096007592198  0.04454329206601782  1.0000
  O   O22       1.0  0.2890260244654963  0.6893096008233195  0.4554567079133407  1.0000
  O   O23       1.0  0.28902602414123696  0.8106903993689795  0.9554567082868685  1.0000
  O   O24       1.0  0.710973975680786  0.3106903993048799  0.5445432924395458  1.0000
  O   O25       1.0  0.8430988405472137  0.10684109646981267  0.2843136100419832  1.0000
  O   O26       1.0  0.15690115914792072  0.6068410965339123  0.2156863899337145  1.0000
  O   O27       1.0  0.1569011595990686  0.8931589031797537  0.7156863903109033  1.0000
  O   O28       1.0  0.843098840190966  0.39315890359428696  0.7843136092207057  1.0000
  O   O29       1.0  0.1853189187813086  0.011671166455761568  0.9635420103309706  1.0000
  O   O30       1.0  0.814681081008726  0.5116711660412283  0.5364579892006384  1.0000
  O   O31       1.0  0.8146810813649737  0.9883288336724378  0.036457990021915916  1.0000
  O   O32       1.0  0.18531891910556794  0.48832883360833806  0.4635420099574426  1.0000
  O   O33       1.0  0.6137330852314725  0.05464394545855192  0.15048592701594993  1.0000
  O   O34       1.0  0.386266914463662  0.5546439450440186  0.3495140729597478  1.0000
  O   O35       1.0  0.38626691491480986  0.9453560546696474  0.8495140733369365  1.0000
  O   O36       1.0  0.6137330849072132  0.4453560546055477  0.6504859273894779  1.0000
  O   O37       1.0  0.4579642167425854  0.16426819565824344  0.4424573877957978  1.0000
  O   O38       1.0  0.5420357829525491  0.6642681957223431  0.05754261217989988  1.0000
  O   O39       1.0  0.542035783403697  0.8357318044699559  0.5575426125570886  1.0000
  O   O40       1.0  0.45796421719373326  0.3357318044058562  0.9424573881729865  1.0000
  F   F1        1.0  0.283799161056853  0.9870545955816904  0.4796772880691505  1.0000
  F   F2        1.0  0.7162008386382815  0.4870545955175907  0.020322711906547206  1.0000
  F   F3        1.0  0.7162008390894294  0.012945404067875966  0.5203227122837359  1.0000
  F   F4        1.0  0.2837991615080009  0.5129454041319756  0.9796772884463392  1.0000
  F   F5        1.0  0.14113425996346082  0.21688644216649358  0.5588971093553126  1.0000
  F   F6        1.0  0.8588657406339694  0.7168864422305933  0.9411028913747624  1.0000
  F   F7        1.0  0.8588657401828216  0.7831135579617057  0.4411028909975738  1.0000
  F   F8        1.0  0.14113425951231293  0.2831135578976061  0.0588971089781239  1.0000
  F   F9        1.0  0.6937578623940159  0.10083145239866752  0.8106168734983391  1.0000
  F   F10       1.0  0.30624213739601874  0.6008314524627671  0.6893831260332698  1.0000
  F   F11       1.0  0.30624213694487085  0.899168547250899  0.18938312565608106  1.0000
  F   F12       1.0  0.6937578627502636  0.39916854718679917  0.3106168743196166  1.0000
  Br  Br1       1.0  0.23681490513939735  0.02098439331488645  0.6752218500389277  1.0000
  Br  Br2       1.0  0.763185095458033  0.5209843933789862  0.8247781506911477  1.0000
  Br  Br3       1.0  0.7631850950068849  0.9790156068133129  0.3247781503139589  1.0000
  Br  Br4       1.0  0.23681490468824948  0.4790156067492132  0.17522184966173882  1.0000
  Br  Br5       1.0  0.27705256422103564  0.19831035211832707  0.48261387186199756  1.0000
  Br  Br6       1.0  0.7229474362495062  0.6983103517037937  0.017386128117361045  1.0000
  Br  Br7       1.0  0.7229474358932585  0.8016896480098722  0.5173861272960836  1.0000
  Br  Br8       1.0  0.27705256389677624  0.30168964794577263  0.9826138722355253  1.0000
  Br  Br9       1.0  0.7689266592954682  0.12163781149912713  0.005236442617059134  1.0000
  Br  Br10      1.0  0.23107334117507353  0.6216378115632268  0.4947635573622993  1.0000
  Br  Br11      1.0  0.2310733408508142  0.8783621881504393  0.9947635577358273  1.0000
  Br  Br12      1.0  0.7689266589712088  0.37836218856497256  0.5052364429905871  1.0000
