data_image0
_chemical_formula_structural       H80C92N16O44
_chemical_formula_sum              "H80 C92 N16 O44"
_cell_length_a       6.2922549879202885
_cell_length_b       26.403701575151324
_cell_length_c       13.567302839810829
_cell_angle_alpha    90.0
_cell_angle_beta     95.0877301989219
_cell_angle_gamma    90.0

_space_group_name_H-M_alt    "P 1"
_space_group_IT_number       1

loop_
  _space_group_symop_operation_xyz
  'x, y, z'

loop_
  _atom_site_type_symbol
  _atom_site_label
  _atom_site_symmetry_multiplicity
  _atom_site_fract_x
  _atom_site_fract_y
  _atom_site_fract_z
  _atom_site_occupancy
  H   H1        1.0  0.9103195427599619  0.9232548080660652  0.13028625797556007  1.0000
  H   H2        1.0  0.9103195431848767  0.5767451922093891  0.6302862584708901  1.0000
  H   H3        1.0  0.08968045729503626  0.07674519211757098  0.869713741880274  1.0000
  H   H4        1.0  0.08968045684886435  0.4232548079742471  0.3697137421210703  1.0000
  H   H5        1.0  0.6583802761557577  0.9905654120335248  0.05942488046412322  1.0000
  H   H6        1.0  0.6583802750065295  0.5094345878631947  0.5594248801478906  1.0000
  H   H7        1.0  0.3416197238992404  0.00943458777137661  0.9405751193917108  1.0000
  H   H8        1.0  0.3416197250484686  0.4905654123204415  0.4405751197079434  1.0000
  H   H9        1.0  0.15942032142284066  0.10034398178827376  0.1362267636926303  1.0000
  H   H10       1.0  0.1594203218690126  0.39965601830354436  0.6362267634518339  1.0000
  H   H11       1.0  0.8405796786109003  0.8996560180166276  0.8637732368993303  1.0000
  H   H12       1.0  0.8405796781859854  0.6003439818800919  0.36377323640400006  1.0000
  H   H13       1.0  0.3872405230404494  0.02853860387170663  0.20341880082815736  1.0000
  H   H14       1.0  0.3872405234653643  0.47146139622011146  0.7034188013234874  1.0000
  H   H15       1.0  0.6127594770145486  0.9714613959331948  0.7965811990276765  1.0000
  H   H16       1.0  0.6127594765896338  0.5285386039635247  0.29658119853234655  1.0000
  H   H17       1.0  0.7257964229235381  0.1621184733442234  0.9867319277624252  1.0000
  H   H18       1.0  0.7257964224773662  0.33788152674759464  0.4867319280032217  1.0000
  H   H19       1.0  0.27420357713146  0.8378815264606779  0.013268072093408674  1.0000
  H   H20       1.0  0.2742035775776319  0.6621184734360415  0.5132680718526124  1.0000
  H   H21       1.0  0.9865940947781673  0.1414527061431005  0.0298748417403862  1.0000
  H   H22       1.0  0.9865940952243393  0.3585472939487176  0.5298748414995899  1.0000
  H   H23       1.0  0.013405905276830749  0.8585472940405358  0.9701251581154479  1.0000
  H   H24       1.0  0.013405904830658828  0.6414527058561837  0.47012515835624413  1.0000
  H   H25       1.0  0.502650462949337  0.8168350228703262  0.27453252429889097  1.0000
  H   H26       1.0  0.5026504633955089  0.6831649770263932  0.7745325240580946  1.0000
  H   H27       1.0  0.4973495371056611  0.18316497731331002  0.7254674755569431  1.0000
  H   H28       1.0  0.49734953665948917  0.3168350227785081  0.22546747579773943  1.0000
  H   H29       1.0  0.11122813302276553  0.7692669136631686  0.41725267941559147  1.0000
  H   H30       1.0  0.11122813346893745  0.7307330866122858  0.9172526791747951  1.0000
  H   H31       1.0  0.8887718670322327  0.2307330865204677  0.5827473204402426  1.0000
  H   H32       1.0  0.8887718665860607  0.26926691357135035  0.08274732068103888  1.0000
  H   H33       1.0  0.9809531180109033  0.9281540715133442  0.3640125817089646  1.0000
  H   H34       1.0  0.9809531184358181  0.5718459283833753  0.8640125822042947  1.0000
  H   H35       1.0  0.019046882044094802  0.07184592867029206  0.6359874181468695  1.0000
  H   H36       1.0  0.019046881619179976  0.428154071421526  0.13598741765153927  1.0000
  H   H37       1.0  0.2661090146738521  0.9431437489596486  0.19832745384518577  1.0000
  H   H38       1.0  0.26610901512002405  0.5568562513158056  0.6983274536043893  1.0000
  H   H39       1.0  0.7338909853598888  0.056856251223987575  0.8016725467467747  1.0000
  H   H40       1.0  0.7338909849349741  0.44314374886783053  0.30167254625144463  1.0000
  H   H41       1.0  0.3054593979389094  0.37411714307876875  0.9188309660708863  1.0000
  H   H42       1.0  0.3054593974927375  0.12588285701304935  0.41883096631168265  1.0000
  H   H43       1.0  0.6945406021160886  0.6258828571048675  0.0811690337849477  1.0000
  H   H44       1.0  0.6945406025622606  0.8741171431705869  0.5811690335441514  1.0000
  H   H45       1.0  0.5680305324919612  0.34460470302250995  0.7652947227060997  1.0000
  H   H46       1.0  0.5680305336624465  0.15539529706930816  0.2652947222862058  1.0000
  H   H47       1.0  0.4319694675630369  0.6553952971611263  0.23470527714973433  1.0000
  H   H48       1.0  0.4319694663925516  0.844604703114328  0.7347052775696283  1.0000
  H   H49       1.0  0.8035750429530998  0.27140438660100746  0.8089440245922238  1.0000
  H   H50       1.0  0.8035750425281848  0.22859561349081062  0.30894402409689364  1.0000
  H   H51       1.0  0.19642495708064125  0.7285956135826287  0.19105597599973673  1.0000
  H   H52       1.0  0.1964249575268132  0.7714043863140907  0.6910559757589404  1.0000
  H   H53       1.0  0.26240996814202755  0.5104768913418062  0.9451677725018915  1.0000
  H   H54       1.0  0.2624099676958557  0.9895231085549132  0.445167772742688  1.0000
  H   H55       1.0  0.7375900319129705  0.48952310884183  0.05483222735394238  1.0000
  H   H56       1.0  0.7375900323591424  0.010476891249988103  0.5548322271131461  1.0000
  H   H57       1.0  0.2714394722106592  0.4510070149106263  0.009026916419555223  1.0000
  H   H58       1.0  0.27143947265683116  0.04899298518119183  0.5090269161787588  1.0000
  H   H59       1.0  0.7285605278443388  0.5489929848942752  0.9909730834362788  1.0000
  H   H60       1.0  0.7285605273981668  0.9510070150024443  0.4909730836770751  1.0000
  H   H61       1.0  0.38816262355246767  0.4568296375289899  0.893650439808685  1.0000
  H   H62       1.0  0.3881626231275528  0.04317036256282818  0.3936504393133547  1.0000
  H   H63       1.0  0.6118373764812732  0.5431703622759115  0.10634956078327562  1.0000
  H   H64       1.0  0.6118373769274452  0.956829637620808  0.6063495605424792  1.0000
  H   H65       1.0  0.7203216196904917  0.4722465266663482  0.8098136731531695  1.0000
  H   H66       1.0  0.7203216192655769  0.0277534734254699  0.30981367265783927  1.0000
  H   H67       1.0  0.27967838034324916  0.527753473517288  0.19018632743879102  1.0000
  H   H68       1.0  0.27967838078942114  0.9722465263794315  0.6901863271979947  1.0000
  H   H69       1.0  0.38589116365887993  0.28794938385287466  0.9110731976541239  1.0000
  H   H70       1.0  0.3858911632339651  0.21205061623894345  0.4110731971587937  1.0000
  H   H71       1.0  0.6141088363961181  0.7120506159520268  0.08892680220171019  1.0000
  H   H72       1.0  0.6141088368210329  0.7879493839446928  0.5889268026970403  1.0000
  H   H73       1.0  0.01576812706888431  0.21131617717005735  0.8837345097506986  1.0000
  H   H74       1.0  0.015768126622712382  0.2886838229217607  0.38373450999149483  1.0000
  H   H75       1.0  0.9842318729861137  0.788683822634844  0.1162654901051355  1.0000
  H   H76       1.0  0.9842318734322857  0.7113161772618755  0.6162654898643392  1.0000
  H   H77       1.0  0.40036391134364857  0.12093058660399968  0.9747745359947843  1.0000
  H   H78       1.0  0.4003639108974766  0.3790694134878184  0.4747745362355806  1.0000
  H   H79       1.0  0.5996360887113495  0.8790694135796365  0.025225463861049718  1.0000
  H   H80       1.0  0.5996360875621214  0.620930586317083  0.5252254635448171  1.0000
  C   C1        1.0  0.954878881051841  0.963087432556481  0.1298647993997575  1.0000
  C   C2        1.0  0.9548788814767557  0.5369125673402386  0.6298647998950877  1.0000
  C   C3        1.0  0.04512111900315717  0.03691256762715529  0.8701352004560765  1.0000
  C   C4        1.0  0.04512111857824233  0.4630874324646628  0.37013519996074634  1.0000
  C   C5        1.0  0.8181240447990639  0.0005300646941552848  0.09059129156624457  1.0000
  C   C6        1.0  0.8181240452239786  0.4994699353976628  0.5905912920615748  1.0000
  C   C7        1.0  0.1818759552559342  0.9994699351107461  0.9094087082895894  1.0000
  C   C8        1.0  0.1818759548097623  0.5005300647859734  0.40940870853038575  1.0000
  C   C9        1.0  0.890017282416398  0.05067559206392566  0.09017641354685033  1.0000
  C   C10       1.0  0.89001728286257  0.44932440764915765  0.590176413306054  1.0000
  C   C11       1.0  0.10998271763860003  0.9493244077409757  0.9098235863089836  1.0000
  C   C12       1.0  0.10998271719242807  0.5506755921557437  0.40982358654978  1.0000
  C   C13       1.0  0.0959990912567614  0.061931780487131494  0.13243169697363963  1.0000
  C   C14       1.0  0.09599909010753327  0.43806821922595185  0.632431696657407  1.0000
  C   C15       1.0  0.9040009087769796  0.9380682193177698  0.8675683036183208  1.0000
  C   C16       1.0  0.9040009099474647  0.5619317805789497  0.367568303198427  1.0000
  C   C17       1.0  0.22493974086971244  0.022724228960558583  0.1707183129568434  1.0000
  C   C18       1.0  0.22493974129462724  0.4772757707525247  0.6707183134521735  1.0000
  C   C19       1.0  0.7750602591852856  0.9772757708443428  0.8292816868989906  1.0000
  C   C20       1.0  0.7750602587391138  0.5227242290523767  0.32928168713978695  1.0000
  C   C21       1.0  0.7435735278084938  0.09029915609422788  0.042496526023127534  1.0000
  C   C22       1.0  0.7435735282546656  0.40970084361885545  0.5424965257823312  1.0000
  C   C23       1.0  0.2564264722465043  0.9097008437106736  0.9575034738327065  1.0000
  C   C24       1.0  0.25642647180033235  0.590299156186046  0.4575034740735028  1.0000
  C   C25       1.0  0.7268824236259233  0.8767943352225727  0.3141384233682469  1.0000
  C   C26       1.0  0.726882424072095  0.6232056646741468  0.8141384231274506  1.0000
  C   C27       1.0  0.2731175764078178  0.12320566458232877  0.6858615772237137  1.0000
  C   C28       1.0  0.2731175759829029  0.37679433513075455  0.18586157672838352  1.0000
  C   C29       1.0  0.6605109238371228  0.8263524516779784  0.30847200563170846  1.0000
  C   C30       1.0  0.6605109242832947  0.673647548218741  0.8084720053909121  1.0000
  C   C31       1.0  0.3394890762178753  0.1736475481269229  0.6915279942241255  1.0000
  C   C32       1.0  0.3394890757717034  0.3263524515861604  0.19152799446492183  1.0000
  C   C33       1.0  0.7992611083727339  0.7886071224042254  0.3459931935001246  1.0000
  C   C34       1.0  0.7992611088189058  0.7113928774924941  0.8459931932593283  1.0000
  C   C35       1.0  0.2007388916822641  0.211392877400676  0.6540068063557094  1.0000
  C   C36       1.0  0.20073889123609218  0.2886071223124073  0.15400680659650573  1.0000
  C   C37       1.0  0.0038267136583724115  0.7989524290735398  0.38817123809541176  1.0000
  C   C38       1.0  0.0038267141045443464  0.7010475708231797  0.8881712378546153  1.0000
  C   C39       1.0  0.9961732863966257  0.20104757111009638  0.6118287617604223  1.0000
  C   C40       1.0  0.9961732859504537  0.2989524289817217  0.11182876200121865  1.0000
  C   C41       1.0  0.0637155075288848  0.8496721990341395  0.39400305353362197  1.0000
  C   C42       1.0  0.06371550797505673  0.6503278008625799  0.8940030532928256  1.0000
  C   C43       1.0  0.9362844925261133  0.15032780077076188  0.6059969463222121  1.0000
  C   C44       1.0  0.9362844920799414  0.3496721993210562  0.10599694656300841  1.0000
  C   C45       1.0  0.9300107240922894  0.8887983362183377  0.3580252842201318  1.0000
  C   C46       1.0  0.9300107229430612  0.6112016636783818  0.8580252839038992  1.0000
  C   C47       1.0  0.06998927596270878  0.1112016635865637  0.6419747156357022  1.0000
  C   C48       1.0  0.06998927711193692  0.38879833650525436  0.14197471595193484  1.0000
  C   C49       1.0  0.5762483221423997  0.918269401772734  0.275922338038719  1.0000
  C   C50       1.0  0.5762483225673146  0.5817305985027204  0.7759223385340491  1.0000
  C   C51       1.0  0.4237516779125982  0.08173059841090224  0.724077661817115  1.0000
  C   C52       1.0  0.42375167746642634  0.4182694016809158  0.22407766205791133  1.0000
  C   C53       1.0  0.0726698714524584  0.3177819055452611  0.8660449693367519  1.0000
  C   C54       1.0  0.07266987100628648  0.182218094546557  0.3660449695775483  1.0000
  C   C55       1.0  0.9273301286025397  0.6822180946383751  0.13395503051908209  1.0000
  C   C56       1.0  0.9273301290487116  0.8177819056370792  0.6339550302782857  1.0000
  C   C57       1.0  0.1437431302032075  0.36807063632116144  0.8850583467697134  1.0000
  C   C58       1.0  0.14374312977829265  0.13192936377065667  0.3850583462743832  1.0000
  C   C59       1.0  0.8562568698305335  0.63192936348374  0.11494165382224715  1.0000
  C   C60       1.0  0.8562568702767054  0.8680706364129794  0.6149416535814508  1.0000
  C   C61       1.0  0.007170269055646155  0.4088551330302683  0.8642566349987377  1.0000
  C   C62       1.0  0.007170268609474231  0.09114486706154978  0.36425663523953405  1.0000
  C   C63       1.0  0.9928297309993519  0.5911448671533679  0.13574336485709623  1.0000
  C   C64       1.0  0.9928297314242668  0.9088551331220863  0.6357433653524265  1.0000
  C   C65       1.0  0.7985106831414056  0.399863347566997  0.8194666706815489  1.0000
  C   C66       1.0  0.7985106843118908  0.10013665252482111  0.31946667026165493  1.0000
  C   C67       1.0  0.2014893168923355  0.6001366526166392  0.18053332991041166  1.0000
  C   C68       1.0  0.20148931574310733  0.8998633472800803  0.6805333295941791  1.0000
  C   C69       1.0  0.7287830532418909  0.35032653446989226  0.8001194801958982  1.0000
  C   C70       1.0  0.728783052795719  0.14967346524319103  0.3001194804366945  1.0000
  C   C71       1.0  0.27121694681310726  0.6496734653350091  0.19988051965993583  1.0000
  C   C72       1.0  0.2712169472592792  0.8503265345617104  0.6998805194191394  1.0000
  C   C73       1.0  0.8626767565317811  0.3096242694128066  0.8240527188750564  1.0000
  C   C74       1.0  0.862676756085609  0.19037573067901148  0.32405271911585276  1.0000
  C   C75       1.0  0.13732324352321695  0.6903757307708295  0.1759472809807776  1.0000
  C   C76       1.0  0.13732324396938886  0.8096242695046247  0.6759472807399813  1.0000
  C   C77       1.0  0.25735447020753616  0.4694193564005605  0.9361120997799882  1.0000
  C   C78       1.0  0.25735447135676426  0.030580643691257608  0.4361121000962207  1.0000
  C   C79       1.0  0.7426455298474619  0.530580643404341  0.06388790007584592  1.0000
  C   C80       1.0  0.7426455286982337  0.9694193564923785  0.5638878997596133  1.0000
  C   C81       1.0  0.21996197130514533  0.2769844784521689  0.8916918618265633  1.0000
  C   C82       1.0  0.2199619724543735  0.22301552163964922  0.3916918621427959  1.0000
  C   C83       1.0  0.7800380287498527  0.7230155217314673  0.10830813802927071  1.0000
  C   C84       1.0  0.7800380276006246  0.776984478543987  0.608308137713038  1.0000
  C   C85       1.0  0.17641626419787748  0.2267254313930675  0.8971249909918703  1.0000
  C   C86       1.0  0.17641626375170555  0.2732745686987506  0.3971249912326665  1.0000
  C   C87       1.0  0.8235837358571206  0.7732745687905688  0.10287500886396389  1.0000
  C   C88       1.0  0.8235837363032926  0.7267254311061508  0.6028750086231676  1.0000
  C   C89       1.0  0.34768027267821294  0.19128651509806552  0.9273086505364457  1.0000
  C   C90       1.0  0.347680272232041  0.30871348499375256  0.42730865077724206  1.0000
  C   C91       1.0  0.6523197273767851  0.8087134850855706  0.07269134931938825  1.0000
  C   C92       1.0  0.6523197278229569  0.6912865148111489  0.5726913490785919  1.0000
  N   N1        1.0  0.1533670988764603  0.9747211324422985  0.1679650839513398  1.0000
  N   N2        1.0  0.1533670977059751  0.525278867454421  0.6679650843712336  1.0000
  N   N3        1.0  0.8466329011785378  0.025278867362602913  0.8320349159044942  1.0000
  N   N4        1.0  0.846632902349023  0.4747211327292151  0.3320349154846003  1.0000
  N   N5        1.0  0.8271750318770743  0.13447401417918997  0.019928491029466845  1.0000
  N   N6        1.0  0.8271750323019892  0.3655259859126281  0.519928491524797  1.0000
  N   N7        1.0  0.17282496817792364  0.8655259856257114  0.9800715088263672  1.0000
  N   N8        1.0  0.17282496775300885  0.634474014271008  0.48007150833103707  1.0000
  N   N9        1.0  0.7236438363903651  0.7360950976771753  0.3432994071852817  1.0000
  N   N10       1.0  0.7236438368365371  0.7639049022195443  0.8432994069444854  1.0000
  N   N11       1.0  0.2763561636433758  0.2639049021277262  0.6567005934066789  1.0000
  N   N12       1.0  0.27635616321846096  0.23609509758535713  0.15670059291134864  1.0000
  N   N13       1.0  0.27392004211361753  0.8615917739885915  0.44377540595455195  1.0000
  N   N14       1.0  0.2739200425597894  0.638408225908128  0.9437754057137555  1.0000
  N   N15       1.0  0.7260799579201235  0.13840822581630982  0.5562245946374086  1.0000
  N   N16       1.0  0.7260799574952087  0.36159177427550826  0.056224594142078456  1.0000
  O   O1        1.0  0.5481428914400411  0.07973619320032532  0.024077153345155762  1.0000
  O   O2        1.0  0.5481428902908131  0.420263806512758  0.5240771530289231  1.0000
  O   O3        1.0  0.45185710861495687  0.9202638066045761  0.9759228465106783  1.0000
  O   O4        1.0  0.4518571097641851  0.5797361932921434  0.4759228468269109  1.0000
  O   O5        1.0  0.8577366944088454  0.7020183267577992  0.36089331108333855  1.0000
  O   O6        1.0  0.8577366948550172  0.7979816731389203  0.8608933108425422  1.0000
  O   O7        1.0  0.14226330564615272  0.2979816730471022  0.6391066887724954  1.0000
  O   O8        1.0  0.14226330519998076  0.20201832704471587  0.1391066890132918  1.0000
  O   O9        1.0  0.5300019911965642  0.728832178898375  0.3238289900744265  1.0000
  O   O10       1.0  0.530001990026079  0.7711678209983444  0.8238289904943202  1.0000
  O   O11       1.0  0.4699980088584338  0.27116782090652625  0.6761710097814077  1.0000
  O   O12       1.0  0.46999801002891906  0.22883217880655707  0.17617100936151364  1.0000
  O   O13       1.0  0.3948892801570817  0.8256476864787872  0.4670445324418607  1.0000
  O   O14       1.0  0.3948892806032536  0.6743523134179323  0.9670445322010643  1.0000
  O   O15       1.0  0.6051107198979163  0.17435231332611423  0.5329554674139733  1.0000
  O   O16       1.0  0.6051107194517444  0.32564768638696906  0.03295546765476962  1.0000
  O   O17       1.0  0.3196069738901048  0.9066137227716643  0.4607343007568841  1.0000
  O   O18       1.0  0.3196069743362767  0.59338627750379  0.9607343005160879  1.0000
  O   O19       1.0  0.6803930261648932  0.09338627741197186  0.53926569909895  1.0000
  O   O20       1.0  0.6803930257187213  0.40661372267984625  0.03926569933974626  1.0000
  O   O21       1.0  0.6332545266694551  0.96344105608057  0.28925018408751024  1.0000
  O   O22       1.0  0.633254525520227  0.5365589441948844  0.7892501837712776  1.0000
  O   O23       1.0  0.36674547338554275  0.03655894410306627  0.7107498157683237  1.0000
  O   O24       1.0  0.36674547453477097  0.4634410559887518  0.21074981608455637  1.0000
  O   O25       1.0  0.3980350910396122  0.9030972048419442  0.23210668808111132  1.0000
  O   O26       1.0  0.39803509146452704  0.5969027950547753  0.7321066885764413  1.0000
  O   O27       1.0  0.6019649090153858  0.09690279496295724  0.7678933117747226  1.0000
  O   O28       1.0  0.601964908590471  0.40309720475012606  0.26789331127939253  1.0000
  O   O29       1.0  0.05351990205396144  0.4585822202063956  0.883330216053311  1.0000
  O   O30       1.0  0.053519901607789515  0.041417779885422466  0.38333021629410724  1.0000
  O   O31       1.0  0.9464800980010367  0.5414177799772406  0.11666978380252312  1.0000
  O   O32       1.0  0.9464800984259515  0.958582219919479  0.6166697842978532  1.0000
  O   O33       1.0  0.6620112460445979  0.43806942928356096  0.794360249568515  1.0000
  O   O34       1.0  0.6620112456196832  0.06193057080825715  0.2943602490731849  1.0000
  O   O35       1.0  0.33798875401040007  0.5619305709000753  0.20563975028731893  1.0000
  O   O36       1.0  0.3379887544353149  0.9380694289966444  0.7056397507826491  1.0000
  O   O37       1.0  0.5403143371943181  0.202710648534109  0.9350487228732677  1.0000
  O   O38       1.0  0.5403143367481462  0.2972893511789743  0.4350487231140639  1.0000
  O   O39       1.0  0.4596856628606799  0.7972893512707924  0.0649512769825664  1.0000
  O   O40       1.0  0.4596856633068519  0.702710648625927  0.56495127674177  1.0000
  O   O41       1.0  0.27727918232422855  0.14446623853641016  0.9472552811796482  1.0000
  O   O42       1.0  0.2772791818780566  0.3555337611766732  0.4472552814204447  1.0000
  O   O43       1.0  0.7227208177307695  0.8555337612684912  0.05274471867618573  1.0000
  O   O44       1.0  0.7227208181769413  0.6444662386282283  0.5527447184353894  1.0000
