data_image0
_chemical_formula_structural       H54C50N2O2F4I2
_chemical_formula_sum              "H54 C50 N2 O2 F4 I2"
_cell_length_a       5.318694699239331
_cell_length_b       13.591122211537394
_cell_length_c       16.76796720529481
_cell_angle_alpha    67.25024716290797
_cell_angle_beta     84.62965708120598
_cell_angle_gamma    79.83129792260831

_space_group_name_H-M_alt    "P 1"
_space_group_IT_number       1

loop_
  _space_group_symop_operation_xyz
  'x, y, z'

loop_
  _atom_site_type_symbol
  _atom_site_label
  _atom_site_symmetry_multiplicity
  _atom_site_fract_x
  _atom_site_fract_y
  _atom_site_fract_z
  _atom_site_occupancy
  H   H1        1.0  0.917933473051907  0.25502840008201916  0.15376039896798535  1.0000
  H   H2        1.0  0.08206652855931475  0.7449715999962927  0.8462396005144529  1.0000
  H   H3        1.0  0.5719349152671701  0.3378190767772265  0.22688762768191056  1.0000
  H   H4        1.0  0.42806508412168437  0.6621809240492518  0.7731123717932763  1.0000
  H   H5        1.0  0.9361463298070568  0.6220180742044895  0.14703915869714232  1.0000
  H   H6        1.0  0.06385366951064414  0.37798192631857125  0.8529608414249535  1.0000
  H   H7        1.0  0.27349930180288323  0.5423510283547984  0.07046098025477285  1.0000
  H   H8        1.0  0.7265006975148178  0.45764897216826217  0.9295390198673231  1.0000
  H   H9        1.0  0.3964696768967946  0.39264655965072304  0.3259540945642489  1.0000
  H   H10       1.0  0.6035303224209064  0.6073534408723376  0.674045905557847  1.0000
  H   H11       1.0  0.03493759659085471  0.48282818748294  0.3871578199504794  1.0000
  H   H12       1.0  0.9650624031420295  0.5171718125953907  0.6128421795260606  1.0000
  H   H13       1.0  0.20703428166291293  0.792442194616989  0.20965772521432824  1.0000
  H   H14       1.0  0.7929657179988178  0.2075578051579243  0.7903422749091208  1.0000
  H   H15       1.0  0.5674742899549899  0.7013695837120755  0.1465936668437649  1.0000
  H   H16       1.0  0.4325257097067407  0.2986304160628377  0.8534063332796842  1.0000
  H   H17       1.0  0.8227469810052115  0.597587449587556  0.45575890855974455  1.0000
  H   H18       1.0  0.1772530183836428  0.40241255123892217  0.5442410909154424  1.0000
  H   H19       1.0  0.6331478864012786  0.6002337794194009  0.371935250809225  1.0000
  H   H20       1.0  0.366852113260452  0.39976622035551224  0.6280647493142241  1.0000
  H   H21       1.0  0.4386393673365787  0.7893944284518634  0.34718435621447935  1.0000
  H   H22       1.0  0.5613606323251518  0.2106055713230498  0.6528156439089697  1.0000
  H   H23       1.0  0.6416972662677343  0.7934210803290384  0.42258493683790943  1.0000
  H   H24       1.0  0.3583027333939963  0.20657891944587492  0.5774150632855396  1.0000
  H   H25       1.0  0.4297045748255221  0.6476649057904066  0.5413587356576413  1.0000
  H   H26       1.0  0.5702954249073617  0.3523350942879243  0.45864126381889864  1.0000
  H   H27       1.0  0.21513816216704007  0.6537929196363346  0.46491682602524903  1.0000
  H   H28       1.0  0.7848618375658438  0.34620708044199633  0.535083173451291  1.0000
  H   H29       1.0  0.29416010811582327  0.8480330375809159  0.5051157997357232  1.0000
  H   H30       1.0  0.7058398915459073  0.15196696219399747  0.4948842003877259  1.0000
  H   H31       1.0  0.06891199466330945  0.8498568833174209  0.434118848517855  1.0000
  H   H32       1.0  0.9310880049984211  0.15014311645749223  0.5658811516055942  1.0000
  H   H33       1.0  0.06797503678304889  0.7139531132882896  0.6294119755248412  1.0000
  H   H34       1.0  0.9320249626058055  0.2860468875381887  0.37058802395034557  1.0000
  H   H35       1.0  0.8334696242385827  0.7266391255928062  0.5569374915952783  1.0000
  H   H36       1.0  0.166530375423148  0.2733608741821068  0.4430625085281708  1.0000
  H   H37       1.0  0.9743582017487922  0.9132753331402756  0.5951384891450572  1.0000
  H   H38       1.0  0.02564179756890889  0.08672466738278486  0.4048615109770388  1.0000
  H   H39       1.0  0.742170535211414  0.927473296627594  0.5220683454365809  1.0000
  H   H40       1.0  0.25782946445031657  0.07252670314731906  0.4779316546868682  1.0000
  H   H41       1.0  0.48268685148052787  0.8115447129093072  0.642390585386795  1.0000
  H   H42       1.0  0.5173131481812028  0.18845528686560598  0.3576094147366541  1.0000
  H   H43       1.0  0.719059197121271  0.7918367762948612  0.716668232040657  1.0000
  H   H44       1.0  0.2809408025404597  0.20816322348005184  0.28333176808279215  1.0000
  H   H45       1.0  0.4230748392765232  0.011574192173978717  0.6072026375364299  1.0000
  H   H46       1.0  0.5769251603852074  0.9884258076009343  0.39279736258701914  1.0000
  H   H47       1.0  0.6540837825548911  0.9910103123457461  0.6827364236886387  1.0000
  H   H48       1.0  0.34591621676281015  0.008989688177314265  0.31726357643345726  1.0000
  H   H49       1.0  0.14322042187066947  0.9015596182380701  0.726480584272053  1.0000
  H   H50       1.0  0.8567795778622147  0.09844038184026069  0.273519415204487  1.0000
  H   H51       1.0  0.21494381534780144  0.01144148769869777  0.7479342031212445  1.0000
  H   H52       1.0  0.7850561843139292  0.9885585120762155  0.25206579700220455  1.0000
  H   H53       1.0  0.3774447314375998  0.8795537435825481  0.8029489298744354  1.0000
  H   H54       1.0  0.6225552682952841  0.12044625649578285  0.1970510696021045  1.0000
  C   C1        1.0  0.6093062069420452  0.998035092373377  0.9224073789747622  1.0000
  C   C2        1.0  0.39069379244680924  0.0019649084531014782  0.07759262050042472  1.0000
  C   C3        1.0  0.7282025223001617  0.9283202749723268  0.9990125689007231  1.0000
  C   C4        1.0  0.2717974770175395  0.0716797255507336  0.0009874312213728155  1.0000
  C   C5        1.0  0.6150502514849322  0.9318791542087117  0.0766169146319796  1.0000
  C   C6        1.0  0.38494974817679833  0.06812084556620134  0.9233830854914695  1.0000
  C   C7        1.0  0.3145757597261608  0.34718473870309724  0.06298526595978571  1.0000
  C   C8        1.0  0.6854242399355697  0.652815261071816  0.9370147341636633  1.0000
  C   C9        1.0  0.11822201052462546  0.39300722044244557  0.10719981114751799  1.0000
  C   C10       1.0  0.881777989137105  0.6069927793324674  0.892800188975931  1.0000
  C   C11       1.0  0.9208266597833089  0.335249788777543  0.15291241012688808  1.0000
  C   C12       1.0  0.07917334182791307  0.6647502113007687  0.8470875893555502  1.0000
  C   C13       1.0  0.727533255386651  0.3822513942731462  0.19434104872274774  1.0000
  C   C14       1.0  0.27246674427507955  0.6177486055017669  0.8056589514007013  1.0000
  C   C15       1.0  0.7249416975111528  0.4870247612904259  0.19231119665086638  1.0000
  C   C16       1.0  0.27505830402891573  0.512975238484468  0.807688803478481  1.0000
  C   C17       1.0  0.9275306900614446  0.5423335971505282  0.1477679225153342  1.0000
  C   C18       1.0  0.07246930925625639  0.45766640337253245  0.8522320776067618  1.0000
  C   C19       1.0  0.1203758684979449  0.49740831170642585  0.1051195487790264  1.0000
  C   C20       1.0  0.8796241308197561  0.5025916888166349  0.8948804513430696  1.0000
  C   C21       1.0  0.5148702877683361  0.5394800320415943  0.23257167541234428  1.0000
  C   C22       1.0  0.4851297118933946  0.46051996773331866  0.7674283247111048  1.0000
  C   C23       1.0  0.35874070018567694  0.4806073194294842  0.30019704205973924  1.0000
  C   C24       1.0  0.6412592994760535  0.5193926803454292  0.6998029580637098  1.0000
  C   C25       1.0  0.15388318784391  0.5313547213232934  0.33560465981622706  1.0000
  C   C26       1.0  0.8461168118178206  0.4686452784516196  0.664395340307222  1.0000
  C   C27       1.0  0.10033754177759599  0.6445120627750786  0.3029137010385771  1.0000
  C   C28       1.0  0.8996624578841346  0.35548793699983466  0.697086299084872  1.0000
  C   C29       1.0  0.2544855412011647  0.7048374969298273  0.23528626530669805  1.0000
  C   C30       1.0  0.7455144581165364  0.29516250359323337  0.7647137348153978  1.0000
  C   C31       1.0  0.45670168489188345  0.6530682488526741  0.20103217402145004  1.0000
  C   C32       1.0  0.5432983148410006  0.3469317512256569  0.7989678254550899  1.0000
  C   C33       1.0  0.7244648997607656  0.6504375235990713  0.3952836147276829  1.0000
  C   C34       1.0  0.27553509990096503  0.34956247617584185  0.6047163853957662  1.0000
  C   C35       1.0  0.5339763926869898  0.740063642224681  0.4085800507697603  1.0000
  C   C36       1.0  0.4660236088530787  0.25993635755021277  0.5914199493595872  1.0000
  C   C37       1.0  0.33478721129534367  0.7017991534431435  0.4807826561144067  1.0000
  C   C38       1.0  0.665212788366387  0.29820084633176974  0.5192173440090424  1.0000
  C   C39       1.0  0.1683003628105541  0.7980233495563339  0.49449549501632273  1.0000
  C   C40       1.0  0.83169963692233  0.20197665052199693  0.5055045044602172  1.0000
  C   C41       1.0  0.972700430392177  0.7700246084190664  0.5693555904126554  1.0000
  C   C42       1.0  0.027299569269553473  0.2299753913558467  0.4306444097107937  1.0000
  C   C43       1.0  0.8327097172618146  0.8708518403147169  0.5828671977795787  1.0000
  C   C44       1.0  0.1672902820558863  0.12914816020834383  0.41713280234251715  1.0000
  C   C45       1.0  0.6308921221326775  0.8500982154422723  0.6559604761362902  1.0000
  C   C46       1.0  0.36910787752905316  0.1499017843326409  0.3440395239871588  1.0000
  C   C47       1.0  0.5053321690218217  0.9532828872153134  0.6688296175916206  1.0000
  C   C48       1.0  0.49466783063990893  0.04671711255959972  0.33117038253182834  1.0000
  C   C49       1.0  0.2990609001017674  0.9356249495410393  0.7403174479544872  1.0000
  C   C50       1.0  0.7009390995599633  0.06437505023387372  0.25968255216896197  1.0000
  N   N1        1.0  0.47790766538552576  0.31093348012646527  0.02598843426770115  1.0000
  N   N2        1.0  0.5220923343473581  0.6890665199518655  0.9740115652088388  1.0000
  O   O1        1.0  0.9068645877010073  0.7037394259189353  0.33115157306095977  1.0000
  O   O2        1.0  0.09313541203187665  0.29626057415939544  0.6688484264155802  1.0000
  F   F1        1.0  0.7121419706035448  0.9990026409863104  0.8450480879782836  1.0000
  F   F2        1.0  0.2878580287141564  0.0009973595367500033  0.15495191214381232  1.0000
  F   F3        1.0  0.7247700363781946  0.8678147844654145  0.15294595656232643  1.0000
  F   F4        1.0  0.27522996328353594  0.13218521530949875  0.8470540435611226  1.0000
  I   I1        1.0  0.06719561560729301  0.8250664480723923  0.9962242520264645  1.0000
  I   I2        1.0  0.9328043840544376  0.17493355170252087  0.0037757480969845456  1.0000
