data_image0
_chemical_formula_structural       H84C54N24O32S8
_chemical_formula_sum              "H84 C54 N24 O32 S8"
_cell_length_a       11.41627814594306
_cell_length_b       13.049127737766801
_cell_length_c       14.052948795210524
_cell_angle_alpha    89.25267388147876
_cell_angle_beta     71.29383056608994
_cell_angle_gamma    78.80398585436916

_space_group_name_H-M_alt    "P 1"
_space_group_IT_number       1

loop_
  _space_group_symop_operation_xyz
  'x, y, z'

loop_
  _atom_site_type_symbol
  _atom_site_label
  _atom_site_symmetry_multiplicity
  _atom_site_fract_x
  _atom_site_fract_y
  _atom_site_fract_z
  _atom_site_occupancy
  H   H1        1.0  0.5954798253883115  0.63896303931153  0.46532612279391666  1.0000
  H   H2        1.0  0.40452017397277307  0.3610369607950727  0.5346738773809424  1.0000
  H   H3        1.0  0.1624360172926069  0.090480429375174  0.5718039233008637  1.0000
  H   H4        1.0  0.8375639820684775  0.9095195707314285  0.4281960768739955  1.0000
  H   H5        1.0  0.21190779821614036  0.9013335238467184  0.5562793776350802  1.0000
  H   H6        1.0  0.7880922023262843  0.09866647621794435  0.4437206217862463  1.0000
  H   H7        1.0  0.5914490212190802  0.6389137406777657  0.989410376536922  1.0000
  H   H8        1.0  0.4085509790185165  0.36108625942839184  0.010589623636740505  1.0000
  H   H9        1.0  0.16197018333052404  0.09287280774849163  0.08484150625757768  1.0000
  H   H10       1.0  0.838029817384835  0.9071271915349717  0.9151584931637938  1.0000
  H   H11       1.0  0.20903971777465732  0.903785433554236  0.07961545533569721  1.0000
  H   H12       1.0  0.7909602824629395  0.09621456655192155  0.9203845448379653  1.0000
  H   H13       1.0  0.23479616664517897  0.7507893852661599  0.7528253988137903  1.0000
  H   H14       1.0  0.7652038327159054  0.24921061484044277  0.24717460136106878  1.0000
  H   H15       1.0  0.23868320823539155  0.7553980792479663  0.8642312561193908  1.0000
  H   H16       1.0  0.7613167914305209  0.24460192081714152  0.13576874330313238  1.0000
  H   H17       1.0  0.8455631257366162  0.4972974959939538  0.8163516622808454  1.0000
  H   H18       1.0  0.15443687450098045  0.5027025041122039  0.18364833789281715  1.0000
  H   H19       1.0  0.8348988687734037  0.3809589403336948  0.7622317373932674  1.0000
  H   H20       1.0  0.16510113194195528  0.6190410589497685  0.23776826202810414  1.0000
  H   H21       1.0  0.8260784071177644  0.3850369065754168  0.5921690046680816  1.0000
  H   H22       1.0  0.17392159254814793  0.6149630934896911  0.40783099475444134  1.0000
  H   H23       1.0  0.8468516908383193  0.4983072319570037  0.5276342303960849  1.0000
  H   H24       1.0  0.15314830939927718  0.5016927681491539  0.4723657697775775  1.0000
  H   H25       1.0  0.8844725028399163  0.6410990410144919  0.7231214905559448  1.0000
  H   H26       1.0  0.11552749652116834  0.3589009590921107  0.27687850961891436  1.0000
  H   H27       1.0  0.8796492272385387  0.6428653501539945  0.5998228090183839  1.0000
  H   H28       1.0  0.12035077212254562  0.3571346499526081  0.4001771911564752  1.0000
  H   H29       1.0  0.7001458983526792  0.04529871625768725  0.21436523729303647  1.0000
  H   H30       1.0  0.2998541021897453  0.9547012838069755  0.7856347621282901  1.0000
  H   H31       1.0  0.3049992629765053  0.037782201431317775  0.2870917341697112  1.0000
  H   H32       1.0  0.6950007372610914  0.9622177986748398  0.7129082660039513  1.0000
  H   H33       1.0  0.5812965399969218  0.7495342743254539  0.2292067474824708  1.0000
  H   H34       1.0  0.41870345936416276  0.2504657257811487  0.7707932526923883  1.0000
  H   H35       1.0  0.3628232946223479  0.20053288992928217  0.2809792944658451  1.0000
  H   H36       1.0  0.6371767056152486  0.7994671101768754  0.7190207057078174  1.0000
  H   H37       1.0  0.7526452300869809  0.8497978330955694  0.200934587779048  1.0000
  H   H38       1.0  0.24735477045544374  0.15020216696909341  0.7990654116422785  1.0000
  H   H39       1.0  0.35732862731544474  0.8425978267162042  0.2722405334178342  1.0000
  H   H40       1.0  0.6426713729221517  0.15740217338995333  0.7277594667558283  1.0000
  H   H41       1.0  0.9870758784895755  0.8172896036686428  0.4813003391242167  1.0000
  H   H42       1.0  0.01292412174802114  0.18271039643751472  0.5186996610494459  1.0000
  H   H43       1.0  0.13008141343672938  0.8187010458348999  0.45953434631320994  1.0000
  H   H44       1.0  0.869918585924355  0.18129895427170264  0.5404656538616491  1.0000
  H   H45       1.0  0.8404238702368034  0.38964165207944945  0.2611311453653072  1.0000
  H   H46       1.0  0.15957613000079315  0.6103583480267082  0.7388688548083553  1.0000
  H   H47       1.0  0.848431362232301  0.5053974763166561  0.31826154713139465  1.0000
  H   H48       1.0  0.15156863831012374  0.4946025237480067  0.6817384522899317  1.0000
  H   H49       1.0  0.8825123060110013  0.6513943897629885  0.22356480850342386  1.0000
  H   H50       1.0  0.11748769422659537  0.34860561034316906  0.7764351916702386  1.0000
  H   H51       1.0  0.8740525294314574  0.6520765935541495  0.10108423742461498  1.0000
  H   H52       1.0  0.12594747080613936  0.34792340655200804  0.8989157627490474  1.0000
  H   H53       1.0  0.8367419403332267  0.3882783671542935  0.097087542572177  1.0000
  H   H54       1.0  0.16325805990436987  0.611721632951864  0.9029124576014854  1.0000
  H   H55       1.0  0.8407443364610574  0.50376244614713  0.030158672494737263  1.0000
  H   H56       1.0  0.15925566377653932  0.49623755395902747  0.9698413276789252  1.0000
  H   H57       1.0  0.6012084408447571  0.3696531767964565  0.792146504534348  1.0000
  H   H58       1.0  0.3987915585163273  0.6303468233101461  0.20785349564051117  1.0000
  H   H59       1.0  0.6026271068145775  0.36428283450091187  0.6708404717614612  1.0000
  H   H60       1.0  0.39737289254650693  0.6357171656056908  0.3291595284133978  1.0000
  H   H61       1.0  0.4823979564864106  0.6361898764771494  0.6732071082358697  1.0000
  H   H62       1.0  0.5176020439241206  0.36381012284780856  0.3267928919378379  1.0000
  H   H63       1.0  0.5215470004538499  0.5167656124498756  0.6010590691724529  1.0000
  H   H64       1.0  0.4784530000885748  0.4832343876147872  0.3989409302488736  1.0000
  H   H65       1.0  0.4789943379589113  0.640130029912659  0.8331483669790284  1.0000
  H   H66       1.0  0.5210056622786853  0.35986997019349853  0.16685163319463417  1.0000
  H   H67       1.0  0.5196107538687073  0.5245757532641336  0.8920082644115657  1.0000
  H   H68       1.0  0.48038924549237716  0.4754242468424689  0.10799173576329346  1.0000
  H   H69       1.0  0.09189892776329774  0.8052107542951411  0.04582952858015154  1.0000
  H   H70       1.0  0.9081010727791269  0.19478924576952175  0.9541704708411749  1.0000
  H   H71       1.0  0.9562087686119018  0.8180306672819406  0.039806983126261734  1.0000
  H   H72       1.0  0.04379123162569489  0.18196933282421685  0.9601930170474007  1.0000
  H   H73       1.0  0.02750980087622571  0.017253907708544684  0.8768058426093481  1.0000
  H   H74       1.0  0.9724901993613709  0.982746092397613  0.12319415756431437  1.0000
  H   H75       1.0  0.07619905150535924  0.8812136581598364  0.835869323596381  1.0000
  H   H76       1.0  0.9238009478557252  0.11878634194676609  0.16413067657847807  1.0000
  H   H77       1.0  0.9965906986924329  0.9144903786564589  0.6136243665547407  1.0000
  H   H78       1.0  0.003409300973479388  0.085509621408649  0.38637563286778237  1.0000
  H   H79       1.0  0.0031797850451253714  0.8298247976043787  0.7095350496666675  1.0000
  H   H80       1.0  0.9968202147937215  0.17017520167952982  0.2904649497559007  1.0000
  H   H81       1.0  0.98796462403448  0.13709173866739072  0.7649014486094644  1.0000
  H   H82       1.0  0.012035376507944683  0.8629082613972721  0.23509855081186212  1.0000
  H   H83       1.0  0.9478358865285962  0.09975255136949839  0.6615591982005827  1.0000
  H   H84       1.0  0.052164112832488  0.9002474487371044  0.33844080197427645  1.0000
  C   C1        1.0  0.643162856382775  0.8897903468800071  0.468087753129612  1.0000
  C   C2        1.0  0.35683714402775607  0.11020965244495104  0.5319122470440956  1.0000
  C   C3        1.0  0.572402454248139  0.7238732360807618  0.47436792856643173  1.0000
  C   C4        1.0  0.42759754598945765  0.2761267640253956  0.5256320716072307  1.0000
  C   C5        1.0  0.6688963163368916  0.7792698402939197  0.45897941884489524  1.0000
  C   C6        1.0  0.33110368390070494  0.22073015981223798  0.5410205813287672  1.0000
  C   C7        1.0  0.26034719667838935  0.0504532532471874  0.5494720020687409  1.0000
  C   C8        1.0  0.739652802987523  0.9495467468179204  0.45052799735378224  1.0000
  C   C9        1.0  0.4151346032594062  0.8869159162076652  0.5129362389761647  1.0000
  C   C10       1.0  0.5848653969781904  0.1130840838984924  0.4870637611974979  1.0000
  C   C11       1.0  0.5145926410172511  0.9440457849999626  0.4952178210040566  1.0000
  C   C12       1.0  0.4854073595251735  0.05595421506470004  0.5047821784172699  1.0000
  C   C13       1.0  0.2881315626806538  0.9439249200462594  0.5406949800234794  1.0000
  C   C14       1.0  0.711868437556943  0.05607508005989819  0.4593050201501831  1.0000
  C   C15       1.0  0.44709857221253363  0.7764954917664211  0.5015747499128743  1.0000
  C   C16       1.0  0.552901428025063  0.22350450833973642  0.4984252502607882  1.0000
  C   C17       1.0  0.6424330323363071  0.8890489097615717  0.9653989259021467  1.0000
  C   C18       1.0  0.357566967329605  0.11095109030353617  0.03460107352037634  1.0000
  C   C19       1.0  0.5694673145543223  0.7238736322793827  0.9910364806928254  1.0000
  C   C20       1.0  0.43053268568327435  0.27612636782677474  0.008963519480837125  1.0000
  C   C21       1.0  0.6673052523996108  0.7785115322306617  0.9615037174608686  1.0000
  C   C22       1.0  0.3326947478379857  0.22148846787549603  0.038496282712793935  1.0000
  C   C23       1.0  0.4131248579499541  0.8876732439596903  0.026247187200687312  1.0000
  C   C24       1.0  0.5868751414111302  0.1123267561469124  0.9737528129741718  1.0000
  C   C25       1.0  0.2598280401200223  0.05208523284996531  0.06102766441231367  1.0000
  C   C26       1.0  0.7401719592410623  0.9479147672566374  0.9389723357625455  1.0000
  C   C27       1.0  0.2862253391986972  0.9455029795167271  0.05746085939277023  1.0000
  C   C28       1.0  0.7137746610388994  0.05449702058943033  0.9425391407808922  1.0000
  C   C29       1.0  0.5138706622317197  0.9440326950000273  0.9978147160172406  1.0000
  C   C30       1.0  0.48612933800587677  0.0559673051061303  0.0021852841564220854  1.0000
  C   C31       1.0  0.44428206544367355  0.777191571397272  0.022861886582835556  1.0000
  C   C32       1.0  0.5557179340903453  0.22280842792813108  0.9771381135920687  1.0000
  C   C33       1.0  0.8606773633518157  0.5034782882298973  0.6683862149078611  1.0000
  C   C34       1.0  0.1393226368857809  0.49652171187626026  0.33161378526580143  1.0000
  C   C35       1.0  0.6263035316200357  0.999900866069472  0.22668925824978559  1.0000
  C   C36       1.0  0.37369646892238895  9.913399519072463e-05  0.7733107411715409  1.0000
  C   C37       1.0  0.4996129011207059  0.05285085711756078  0.2514360131166436  1.0000
  C   C38       1.0  0.5003870991168907  0.9471491429885968  0.7485639870570189  1.0000
  C   C39       1.0  0.40280932804363073  0.9957827778471787  0.2682883139643061  1.0000
  C   C40       1.0  0.5971906724987939  0.004217222217484024  0.7317116854570206  1.0000
  C   C41       1.0  0.5580783288155717  0.834830363297582  0.2356467643629834  1.0000
  C   C42       1.0  0.4419216705455127  0.16516963680902064  0.7643532358118758  1.0000
  C   C43       1.0  0.4656460317755133  0.16673841708184894  0.2602264194658858  1.0000
  C   C44       1.0  0.5343539684620834  0.8332615830243084  0.7397735807077767  1.0000
  C   C45       1.0  0.654993733211091  0.8912552064105902  0.21918410109001166  1.0000
  C   C46       1.0  0.34500626614999336  0.10874479369601243  0.7808158990848475  1.0000
  C   C47       1.0  0.4321388155985002  0.8868442787641965  0.2600841487593342  1.0000
  C   C48       1.0  0.5678611849439243  0.11315572130046621  0.7399158506619923  1.0000
  C   C49       1.0  0.8560503082853453  0.5139825832031468  0.17110972271973057  1.0000
  C   C50       1.0  0.14394969107573907  0.48601741690345585  0.8288902774551284  1.0000
  C   C51       1.0  0.5275993635748485  0.5071204058784752  0.7452575830837318  1.0000
  C   C52       1.0  0.4724006360910638  0.49287959418663274  0.25474241633879136  1.0000
  C   C53       1.0  0.9998597015930073  0.9805677574741669  0.7465034046295016  1.0000
  C   C54       1.0  0.00014029864458939628  0.019432242631990587  0.2534965955441608  1.0000
  N   N1        1.0  0.8546075054381889  0.45408303889850316  0.7531710801878849  1.0000
  N   N2        1.0  0.14539249479940772  0.5459169612076543  0.24682891998577747  1.0000
  N   N3        1.0  0.8547196787688033  0.45453387245709814  0.5870748475386924  1.0000
  N   N4        1.0  0.14528032177362132  0.5454661276075646  0.41292515188263407  1.0000
  N   N5        1.0  0.876120699229888  0.6024305241152262  0.6633369319106291  1.0000
  N   N6        1.0  0.1238793010077085  0.3975694759909312  0.3366630682630334  1.0000
  N   N7        1.0  0.8561305469842919  0.4636782580253385  0.254722355258243  1.0000
  N   N8        1.0  0.14386945325330472  0.5363217420808191  0.7452776449154195  1.0000
  N   N9        1.0  0.8659402488131799  0.6145136802611392  0.16670604509510414  1.0000
  N   N10       1.0  0.1340597514244167  0.3854863198450183  0.8332939550785583  1.0000
  N   N11       1.0  0.8466504518515772  0.46411324143314436  0.09217462790922115  1.0000
  N   N12       1.0  0.15334954750950708  0.5358867586734584  0.907825372265638  1.0000
  N   N13       1.0  0.5619128774829187  0.40192599269611684  0.7402997633515099  1.0000
  N   N14       1.0  0.43808712187816545  0.5980740074104859  0.25970023682334925  1.0000
  N   N15       1.0  0.5069660538995299  0.5568167306688024  0.6670420765298429  1.0000
  N   N16       1.0  0.49303394633806685  0.44318326943735514  0.33295792364381954  1.0000
  N   N17       1.0  0.5110171985583782  0.5615624090366289  0.8296248749862617  1.0000
  N   N18       1.0  0.4889828008027062  0.4384375910699737  0.17037512518859743  1.0000
  N   N19       1.0  0.03400626748396405  0.9566395313149267  0.8279593712869924  1.0000
  N   N20       1.0  0.9659937327536325  0.0433604687912307  0.17204062888667024  1.0000
  N   N21       1.0  0.9913329014963567  0.9043162317825808  0.6872402064476754  1.0000
  N   N22       1.0  0.008667098741239812  0.09568376832357678  0.31275979372598717  1.0000
  N   N23       1.0  0.96956377216671  0.08046468678072011  0.7260095928256084  1.0000
  N   N24       1.0  0.03043622807088683  0.9195353133254374  0.273990407348054  1.0000
  O   O1        1.0  0.8953017515274416  0.7351179670814544  0.32580471417917584  1.0000
  O   O2        1.0  0.10469824783364283  0.26488203302514823  0.6741952859956832  1.0000
  O   O3        1.0  0.8174122086438179  0.5951974436015791  0.43109276540638775  1.0000
  O   O4        1.0  0.18258779189860674  0.4048025564630836  0.5689072340149387  1.0000
  O   O5        1.0  0.23899043536989997  0.7262608056501183  0.6209505805021536  1.0000
  O   O6        1.0  0.7610095648676967  0.2737391944560392  0.37904941967150896  1.0000
  O   O7        1.0  0.270762086028264  0.7277365949060257  0.43993107274916565  1.0000
  O   O8        1.0  0.7292379136376484  0.27226340515908215  0.5600689266733574  1.0000
  O   O9        1.0  0.8762540903571234  0.7379104003983747  0.5046365001893426  1.0000
  O   O10       1.0  0.12374590988047311  0.2620895997077827  0.49536349998431994  1.0000
  O   O11       1.0  0.39654440331660995  0.5896551971584088  0.5044063974102224  1.0000
  O   O12       1.0  0.6034555960444744  0.4103448029481939  0.4955936027646367  1.0000
  O   O13       1.0  0.8863343636882702  0.7345907654069036  0.8190128856116514  1.0000
  O   O14       1.0  0.11366563567281417  0.2654092346996989  0.18098711456320757  1.0000
  O   O15       1.0  0.2550215355164427  0.7307611970916537  0.16785013035561885  1.0000
  O   O16       1.0  0.7449784638446417  0.269238803014949  0.8321498698192402  1.0000
  O   O17       1.0  0.8149867949564336  0.5934148648334423  0.9251875383686755  1.0000
  O   O18       1.0  0.18501320558599102  0.40658513523122053  0.07481246105265088  1.0000
  O   O19       1.0  0.24624293914261547  0.7266378556177838  0.9957356411525499  1.0000
  O   O20       1.0  0.7537570606962315  0.27336214366612455  0.004264358270018279  1.0000
  O   O21       1.0  0.8826362070203608  0.7330988380637803  0.9944837637013497  1.0000
  O   O22       1.0  0.11736379321723561  0.2669011620423772  0.005516236472312725  1.0000
  O   O23       1.0  0.39241948702099094  0.5907780668868841  0.04610468616858687  1.0000
  O   O24       1.0  0.607580512513028  0.40922193243851906  0.9538953140063172  1.0000
  O   O25       1.0  0.18321530613226936  0.7521433056601362  0.8240151123002296  1.0000
  O   O26       1.0  0.8167846932288151  0.24785669444646638  0.1759848878746296  1.0000
  O   O27       1.0  0.5423418094603434  0.22550619395382404  0.24628673041569057  1.0000
  O   O28       1.0  0.45765819077725317  0.7744938061523334  0.7537132697579719  1.0000
  O   O29       1.0  0.047194288369081044  0.865459946798501  0.4692074615672037  1.0000
  O   O30       1.0  0.9528057109920034  0.13454005330810154  0.5307925386076554  1.0000
  O   O31       1.0  0.006506291145182429  0.8494321468820691  0.07223090365289216  1.0000
  O   O32       1.0  0.9934937083888365  0.15056785244333398  0.9277690965220121  1.0000
  S   S1        1.0  0.8271464036530227  0.7060845881782565  0.4264495840828933  1.0000
  S   S2        1.0  0.17285359570806164  0.2939154119283461  0.5735504160919658  1.0000
  S   S3        1.0  0.3293762374119305  0.6985757016745338  0.5196695880760168  1.0000
  S   S4        1.0  0.6706237619491541  0.30142429843206897  0.4803304120988423  1.0000
  S   S5        1.0  0.8254980455588283  0.7041723940520805  0.9211032415814184  1.0000
  S   S6        1.0  0.17450195380225608  0.2958276060545221  0.07889675859344067  1.0000
  S   S7        1.0  0.3253111546945287  0.7000291585420657  0.061205543224979106  1.0000
  S   S8        1.0  0.674688845543068  0.2999708415640918  0.9387944569486834  1.0000
