data_image0
_chemical_formula_structural       H100C132N16O8P4
_chemical_formula_sum              "H100 C132 N16 O8 P4"
_cell_length_a       14.996392003656394
_cell_length_b       9.990993323815589
_cell_length_c       18.36268867945538
_cell_angle_alpha    90.0
_cell_angle_beta     103.29175887714314
_cell_angle_gamma    90.0

_space_group_name_H-M_alt    "P 1"
_space_group_IT_number       1

loop_
  _space_group_symop_operation_xyz
  'x, y, z'

loop_
  _atom_site_type_symbol
  _atom_site_label
  _atom_site_symmetry_multiplicity
  _atom_site_fract_x
  _atom_site_fract_y
  _atom_site_fract_z
  _atom_site_occupancy
  H   H1        1.0  0.1732537919267243  0.683862359682837  0.3513668666423516  1.0000
  H   H2        1.0  0.8267462079335886  0.1838623598737885  0.1486331334047916  1.0000
  H   H3        1.0  0.8267462078350425  0.31613763993526006  0.6486331332861033  1.0000
  H   H4        1.0  0.17325379249473485  0.8161376407452101  0.8513668665227057  1.0000
  H   H5        1.0  0.23743748445266047  0.8241794237187289  0.4633318040343954  1.0000
  H   H6        1.0  0.7625625154076522  0.3241794239096803  0.03666819601274781  1.0000
  H   H7        1.0  0.7625625153091062  0.17582057589936823  0.5366681958940595  1.0000
  H   H8        1.0  0.23743748451278557  0.6758205757084168  0.9633318044752789  1.0000
  H   H9        1.0  0.2182387904627266  0.4649886862526492  0.3082526042296639  1.0000
  H   H10       1.0  0.7817612093975862  0.9649886860616977  0.19174739581747943  1.0000
  H   H11       1.0  0.7817612094577111  0.5350113143663493  0.6917473962583628  1.0000
  H   H12       1.0  0.21823879036418065  0.03501131355639933  0.8082526041109755  1.0000
  H   H13       1.0  0.0609627037462444  0.8340550703939004  0.2393208357881285  1.0000
  H   H14       1.0  0.9390372959553973  0.33405507058485184  0.2606791636994432  1.0000
  H   H15       1.0  0.9390372960155223  0.1659449302250982  0.7606791641403264  1.0000
  H   H16       1.0  0.06096270380636942  0.6659449300341468  0.7393208362290118  1.0000
  H   H17       1.0  0.3349047970762715  0.9050269854996548  0.22625469558190792  1.0000
  H   H18       1.0  0.6650952034505977  0.4050269856906063  0.27374530446427764  1.0000
  H   H19       1.0  0.6650952033520517  0.09497301411844222  0.7737453043455894  1.0000
  H   H20       1.0  0.3349047969777255  0.5949730139274907  0.7262546954632196  1.0000
  H   H21       1.0  0.3078671353932882  0.2552275892249477  0.3278651234417061  1.0000
  H   H22       1.0  0.6921328644670245  0.7552275890339962  0.1721348766054372  1.0000
  H   H23       1.0  0.6921328643684785  0.7447724103931495  0.6721348764867489  1.0000
  H   H24       1.0  0.30786713529474224  0.24477241058410085  0.8278651233230178  1.0000
  H   H25       1.0  0.34591919292098433  0.5710096519032866  0.12727409427518666  1.0000
  H   H26       1.0  0.6540808069393284  0.07100965109333657  0.3727259057719566  1.0000
  H   H27       1.0  0.654080807507339  0.42899034871571196  0.8727259056523107  1.0000
  H   H28       1.0  0.3459191928224383  0.9289903485247605  0.6272740941564983  1.0000
  H   H29       1.0  0.35256279195247686  0.9980077472609112  0.45828363327916727  1.0000
  H   H30       1.0  0.6474372085743924  0.49800774745186266  0.04171636676701838  1.0000
  H   H31       1.0  0.6474372084758464  0.00199225235718588  0.54171636664833  1.0000
  H   H32       1.0  0.3525627918539308  0.5019922521662344  0.9582836331604788  1.0000
  H   H33       1.0  0.40449011412761343  0.03656706076753488  0.3409021843789887  1.0000
  H   H34       1.0  0.5955098863992558  0.5365670615774849  0.15909781566719683  1.0000
  H   H35       1.0  0.5955098863007099  0.9634329388505622  0.6590978155485085  1.0000
  H   H36       1.0  0.4044901140290674  0.4634329390415136  0.8409021842603004  1.0000
  H   H37       1.0  0.4184563280920228  0.2032573903496968  0.2492743695400489  1.0000
  H   H38       1.0  0.5815436717682899  0.7032573901587453  0.25072563050709434  1.0000
  H   H39       1.0  0.5815436716697439  0.7967426102693017  0.750725630388406  1.0000
  H   H40       1.0  0.4184563286600334  0.2967426104602532  0.7492743694204029  1.0000
  H   H41       1.0  0.1022822199002957  0.44950769602605073  0.14435527301450826  1.0000
  H   H42       1.0  0.897717779960017  0.9495076958350992  0.355644727032635  1.0000
  H   H43       1.0  0.8977177798614709  0.5504923035920464  0.8556447269139467  1.0000
  H   H44       1.0  0.10228222046830623  0.05049230378299784  0.6443552728948623  1.0000
  H   H45       1.0  0.8305031731851962  0.5796168941676781  0.1494109830761411  1.0000
  H   H46       1.0  0.16949682667511673  0.07961689435862966  0.35058901697100214  1.0000
  H   H47       1.0  0.16949682657657072  0.42038310545041885  0.8505890168523138  1.0000
  H   H48       1.0  0.8305031732453211  0.9203831052594673  0.6494109835170244  1.0000
  H   H49       1.0  0.9349696800703354  0.40851905288244744  0.11691267365377524  1.0000
  H   H50       1.0  0.06503031978997743  0.9085190526914959  0.38308732639336807  1.0000
  H   H51       1.0  0.0650303196914315  0.5914809467356497  0.8830873262746798  1.0000
  H   H52       1.0  0.9349696799717894  0.09148094692660112  0.6169126735350869  1.0000
  H   H53       1.0  0.8943564897334965  0.7916514548304576  0.21224216390816933  1.0000
  H   H54       1.0  0.10564351012681628  0.291651455021409  0.28775783613897393  1.0000
  H   H55       1.0  0.10564351002827031  0.20834854478763953  0.7877578360202856  1.0000
  H   H56       1.0  0.894356490301507  0.7083485455975896  0.7122421637885233  1.0000
  H   H57       1.0  0.43732388701916947  0.3614249987929079  0.14911497006293795  1.0000
  H   H58       1.0  0.5626761128411433  0.8614249986019564  0.3508850299842053  1.0000
  H   H59       1.0  0.5626761129012682  0.6385750018260906  0.8508850304250886  1.0000
  H   H60       1.0  0.4373238869206235  0.13857500101614068  0.6491149699442496  1.0000
  H   H61       1.0  0.3282587017738941  0.13449750254530377  0.9491160595792244  1.0000
  H   H62       1.0  0.671741298714554  0.6344975023543523  0.550883940789156  1.0000
  H   H63       1.0  0.6717412988131001  0.8655024970727933  0.05088394090784433  1.0000
  H   H64       1.0  0.3282587017137692  0.3655024972637448  0.4491160591383413  1.0000
  H   H65       1.0  0.41137937655494183  0.9128586111913151  0.15489044932207666  1.0000
  H   H66       1.0  0.5886206239719273  0.41285861138226654  0.3451095507241089  1.0000
  H   H67       1.0  0.5886206238733813  0.08714138942768347  0.8451095506054206  1.0000
  H   H68       1.0  0.41137937645639594  0.5871413892367321  0.6548904492033883  1.0000
  H   H69       1.0  0.04553367975036468  0.01672064674508269  0.8721096718781712  1.0000
  H   H70       1.0  0.9544663199128561  0.5167206465541312  0.6278903279315954  1.0000
  H   H71       1.0  0.9544663200114021  0.9832793528730145  0.1278903280502837  1.0000
  H   H72       1.0  0.045533679848910644  0.48327935306396586  0.37210967199685957  1.0000
  H   H73       1.0  0.5954544271802457  0.2009095247031365  0.09526372730451392  1.0000
  H   H74       1.0  0.40454557268006713  0.700909524512185  0.40473627274262935  1.0000
  H   H75       1.0  0.40454557258152113  0.7990904749149605  0.9047362726239409  1.0000
  H   H76       1.0  0.5954544272403707  0.299090475105912  0.5952637277453973  1.0000
  H   H77       1.0  0.557979817789122  0.034351885631020256  0.1854483045071267  1.0000
  H   H78       1.0  0.4420201820711908  0.5343518864409703  0.31455169554001655  1.0000
  H   H79       1.0  0.4420201819726448  0.9656481139870768  0.8145516954213282  1.0000
  H   H80       1.0  0.557979817690576  0.46564811417802826  0.6854483043884383  1.0000
  H   H81       1.0  0.009574467244375131  0.717400051996301  0.03263398952814682  1.0000
  H   H82       1.0  0.9904255326159377  0.21740005118635097  0.4673660105189964  1.0000
  H   H83       1.0  0.9904255325173916  0.28259994862269755  0.9673660104003081  1.0000
  H   H84       1.0  0.009574467145829206  0.7825999484317461  0.5326339894094586  1.0000
  H   H85       1.0  0.7817271986698949  0.8275236327395031  0.852469927304545  1.0000
  H   H86       1.0  0.21827280181855338  0.3275236329304546  0.6475300730638356  1.0000
  H   H87       1.0  0.21827280125054283  0.1724763668785939  0.14753007318348157  1.0000
  H   H88       1.0  0.7817271986097699  0.6724763666876424  0.3524699268636617  1.0000
  H   H89       1.0  0.8820768093695873  0.9902909980347636  0.8065313941946887  1.0000
  H   H90       1.0  0.11792319096019  0.49029099822571504  0.6934686056141203  1.0000
  H   H91       1.0  0.11792319105873596  0.009709001583333501  0.1934686057328086  1.0000
  H   H92       1.0  0.8820768094681333  0.509709001392382  0.30653139431337695  1.0000
  H   H93       1.0  0.27181659021873367  0.8798182097716561  0.08167584988915573  1.0000
  H   H94       1.0  0.728183409641579  0.37981820996260757  0.4183241501579876  1.0000
  H   H95       1.0  0.7281834095430332  0.12018178984644097  0.9183241500392992  1.0000
  H   H96       1.0  0.2718165902788586  0.6201817896554895  0.581675850330039  1.0000
  H   H97       1.0  0.14714615483148125  0.8212004536568578  0.044944109664115564  1.0000
  H   H98       1.0  0.8528538450288314  0.32120045384780926  0.4550558903830277  1.0000
  H   H99       1.0  0.8528538449302854  0.17879954596123923  0.9550558902643393  1.0000
  H   H100      1.0  0.14714615473293532  0.6787995457702878  0.5449441095454273  1.0000
  C   C1        1.0  0.09262869462409588  0.6450621515918207  0.19279204443894865  1.0000
  C   C2        1.0  0.9073713050775459  0.14506215178277213  0.307207955048623  1.0000
  C   C3        1.0  0.907371305137671  0.3549378480262764  0.8072079554895063  1.0000
  C   C4        1.0  0.0926286946842209  0.8549378488362265  0.6927920448798319  1.0000
  C   C5        1.0  0.22289375285107507  0.7623377859581265  0.348606843316691  1.0000
  C   C6        1.0  0.7771062470092377  0.262337786149078  0.15139315673045228  1.0000
  C   C7        1.0  0.7771062469106917  0.23766221365997053  0.6513931566117639  1.0000
  C   C8        1.0  0.22289375275252915  0.7376622134690191  0.8486068431980027  1.0000
  C   C9        1.0  0.25013129562332737  0.7861259641999707  0.2815031591244213  1.0000
  C   C10       1.0  0.7498687049035418  0.2861259643909221  0.21849684092176422  1.0000
  C   C11       1.0  0.7498687048049958  0.21387403641902789  0.7184968408030759  1.0000
  C   C12       1.0  0.2501312955247814  0.7138740362280764  0.7815031590057331  1.0000
  C   C13       1.0  0.2749381827969015  0.5298920986545259  0.21508667052575434  1.0000
  C   C14       1.0  0.7250618175712967  0.02989209884547736  0.2849133289608597  1.0000
  C   C15       1.0  0.7250618176314217  0.4701079009635712  0.784913329401743  1.0000
  C   C16       1.0  0.2749381828570266  0.9701079017735212  0.7150866709666377  1.0000
  C   C17       1.0  0.25957086162439735  0.8396951542347811  0.4115661940286742  1.0000
  C   C18       1.0  0.7404291382359154  0.33969515442573256  0.08843380601846898  1.0000
  C   C19       1.0  0.7404291381373693  0.16030484538331594  0.5884338058997807  1.0000
  C   C20       1.0  0.25957086168452237  0.6603048451923645  0.9115661944695574  1.0000
  C   C21       1.0  0.26451588282046506  0.44146522743501837  0.27204477643822783  1.0000
  C   C22       1.0  0.7354841177064042  0.9414652282449684  0.22795522360795775  1.0000
  C   C23       1.0  0.7354841177665291  0.5585347721830786  0.7279552240488409  1.0000
  C   C24       1.0  0.26451588272191906  0.058534772374030104  0.7720447763195395  1.0000
  C   C25       1.0  0.033621520776238784  0.741040638306872  0.21203707399951266  1.0000
  C   C26       1.0  0.9663784790840739  0.24104063849782334  0.2879629260476306  1.0000
  C   C27       1.0  0.966378478985528  0.2589593623121267  0.7879629259289422  1.0000
  C   C28       1.0  0.033621520677692814  0.7589593621211752  0.7120370738808244  1.0000
  C   C29       1.0  0.3145579151289814  0.8863829914579432  0.2785558209861117  1.0000
  C   C30       1.0  0.6854420847313313  0.38638299164889456  0.22144417906103156  1.0000
  C   C31       1.0  0.6854420846327853  0.11361700816015399  0.7214441789423431  1.0000
  C   C32       1.0  0.3145579158556629  0.6136170089701041  0.7785558214260373  1.0000
  C   C33       1.0  0.31579667207091816  0.3239201634021364  0.28372640667067534  1.0000
  C   C34       1.0  0.6842033277893946  0.823920163211185  0.21627359337646793  1.0000
  C   C35       1.0  0.6842033276908487  0.6760798372168622  0.7162735932577796  1.0000
  C   C36       1.0  0.3157966719723722  0.17607983740781358  0.7837264065519871  1.0000
  C   C37       1.0  0.3374883416950126  0.501630642476096  0.17099387028845173  1.0000
  C   C38       1.0  0.6625116588318566  0.0016306416661459786  0.32900612975773386  1.0000
  C   C39       1.0  0.6625116587333106  0.49836935814290256  0.8290061296390455  1.0000
  C   C40       1.0  0.3374883415964667  0.9983693579519511  0.6709938701697633  1.0000
  C   C41       1.0  0.3245720089526312  0.9386556237251569  0.40859859923712477  1.0000
  C   C42       1.0  0.6754279915742379  0.4386556239161083  0.09140140080906083  1.0000
  C   C43       1.0  0.6754279914756921  0.06134437589294025  0.5914014006903725  1.0000
  C   C44       1.0  0.32457200885408527  0.5613443757019888  0.9085985991184364  1.0000
  C   C45       1.0  0.35236084921765876  0.961333554002611  0.34216072053367647  1.0000
  C   C46       1.0  0.647639150642654  0.4613335541935625  0.1578392795134668  1.0000
  C   C47       1.0  0.647639150544108  0.03866644561548608  0.6578392793947785  1.0000
  C   C48       1.0  0.3523608491191128  0.5386664454245347  0.8421607204149882  1.0000
  C   C49       1.0  0.37784089788250513  0.2947704071606042  0.23944436478940484  1.0000
  C   C50       1.0  0.6221591026443641  0.7947704069696527  0.26055563525678077  1.0000
  C   C51       1.0  0.6221591025458182  0.7052295924574928  0.7605556351380924  1.0000
  C   C52       1.0  0.3778408977839592  0.2052295926484443  0.7394443646707166  1.0000
  C   C53       1.0  0.05668173620559981  0.5245574799361896  0.1590223257022844  1.0000
  C   C54       1.0  0.9433182643212694  0.024557480127141023  0.34097767434390125  1.0000
  C   C55       1.0  0.9433182642227236  0.47544251968190754  0.840977674225213  1.0000
  C   C56       1.0  0.05668173610705386  0.9754425194909561  0.6590223255835961  1.0000
  C   C57       1.0  0.9040229067425084  0.5979061246853716  0.16238748116104507  1.0000
  C   C58       1.0  0.09597709311780435  0.09790612487632315  0.33761251888609817  1.0000
  C   C59       1.0  0.09597709301925841  0.40209387593362683  0.8376125187674098  1.0000
  C   C60       1.0  0.9040229066439625  0.9020938757426754  0.6623874810423568  1.0000
  C   C61       1.0  0.9625732113934437  0.5015138462815456  0.14385518872354836  1.0000
  C   C62       1.0  0.03742678846686906  0.0015138464724970694  0.3561448113235949  1.0000
  C   C63       1.0  0.037426788368323104  0.4984861533365515  0.8561448112049066  1.0000
  C   C64       1.0  0.9625732112948977  0.9984861531456  0.6438551886048601  1.0000
  C   C65       1.0  0.9396725603944737  0.7170467517902458  0.19689643707671495  1.0000
  C   C66       1.0  0.06032743946583904  0.21704675098029577  0.3031035629704283  1.0000
  C   C67       1.0  0.06032743936729308  0.2829532488287527  0.80310356285174  1.0000
  C   C68       1.0  0.9396725602959277  0.7829532486378012  0.6968964369580266  1.0000
  C   C69       1.0  0.3888870461802445  0.3837261206912566  0.18351489497905377  1.0000
  C   C70       1.0  0.6111129543466247  0.8837261215012066  0.31648510506713184  1.0000
  C   C71       1.0  0.6111129542480788  0.6162738789268405  0.8164851049484435  1.0000
  C   C72       1.0  0.38888704608169855  0.11627387911779193  0.6835148948603654  1.0000
  C   C73       1.0  0.4884094862924552  0.265765662526331  0.9643629682265965  1.0000
  C   C74       1.0  0.5115905133707657  0.7657656623353795  0.5356370315831701  1.0000
  C   C75       1.0  0.5115905134693116  0.7342343380926676  0.03563703170185841  1.0000
  C   C76       1.0  0.4884094863910011  0.23423433828361903  0.4643629683452849  1.0000
  C   C77       1.0  0.4641722252530816  0.17649959046580066  0.017269913881755448  1.0000
  C   C78       1.0  0.5358277746072311  0.6764995902748492  0.48273008616538776  1.0000
  C   C79       1.0  0.5358277745086852  0.8235004101531979  0.9827300860466994  1.0000
  C   C80       1.0  0.46417222515453566  0.32350040934324786  0.5172699137630671  1.0000
  C   C81       1.0  0.37823059834482725  0.11316555955501396  0.0006015120679738289  1.0000
  C   C82       1.0  0.6217694013568146  0.6131655593640625  0.49939848741959786  1.0000
  C   C83       1.0  0.621769402083496  0.8868344400630831  0.9993984878595233  1.0000
  C   C84       1.0  0.3782305984049522  0.3868344402540346  0.5006015125088571  1.0000
  C   C85       1.0  0.4247338973458504  0.9907341962090077  0.11716611387281324  1.0000
  C   C86       1.0  0.5752661025144624  0.4907341963999591  0.38283388617433006  1.0000
  C   C87       1.0  0.5752661024159165  0.009265803409089408  0.8828338860556417  1.0000
  C   C88       1.0  0.4247338974059754  0.5092658042190393  0.6171661143136965  1.0000
  C   C89       1.0  0.35816983926046586  0.0187318992150549  0.051125593313426365  1.0000
  C   C90       1.0  0.641830160599847  0.5187318990241034  0.4488744067337169  1.0000
  C   C91       1.0  0.641830160501301  0.9812681014039436  0.9488744066150285  1.0000
  C   C92       1.0  0.3581698393205908  0.4812681005939936  0.5511255937543096  1.0000
  C   C93       1.0  0.19819244925085064  0.9620546995150223  0.9840085453463778  1.0000
  C   C94       1.0  0.8018075505710412  0.4620546997059737  0.5159914550229604  1.0000
  C   C95       1.0  0.8018075506695873  0.03794530010307487  0.015991455141648778  1.0000
  C   C96       1.0  0.19819244919072562  0.5379453009130248  0.48400854490549455  1.0000
  C   C97       1.0  0.890573367944628  0.7635935589922345  0.9451651391257844  1.0000
  C   C98       1.0  0.10942663171859277  0.2635935591831859  0.5548348606839821  1.0000
  C   C99       1.0  0.10942663181713871  0.23640644062586263  0.0548348608026705  1.0000
  C   C100      1.0  0.8905733680431741  0.7364064404349112  0.44516513924447276  1.0000
  C   C101      1.0  0.0021360318475692657  0.9449800179021983  0.891985374748936  1.0000
  C   C102      1.0  0.9978639678156516  0.44498001809314985  0.6080146250608305  1.0000
  C   C103      1.0  0.9978639679141975  0.055019981715898725  0.10801462517951883  1.0000
  C   C104      1.0  0.002136031946115267  0.5550199815249472  0.39198537486762447  1.0000
  C   C105      1.0  0.5293945188637091  0.150675847857046  0.08405894785951021  1.0000
  C   C106      1.0  0.4706054816631601  0.6506758476660945  0.4159410521866754  1.0000
  C   C107      1.0  0.47060548172328515  0.8493241527619526  0.9159410526275586  1.0000
  C   C108      1.0  0.5293945187651632  0.34932415295290403  0.5840589477408219  1.0000
  C   C109      1.0  0.5082177462457019  0.0573441189910833  0.13381603445122198  1.0000
  C   C110      1.0  0.4917822536146108  0.5573441188001319  0.3661839655959213  1.0000
  C   C111      1.0  0.49178225351606486  0.9426558816279152  0.866183965477233  1.0000
  C   C112      1.0  0.508217746147156  0.44265588081796525  0.6338160343325336  1.0000
  C   C113      1.0  0.03946009646696864  0.8681888956249795  0.9562173869777011  1.0000
  C   C114      1.0  0.9605399033549231  0.36818889581593095  0.543782613391637  1.0000
  C   C115      1.0  0.9605399034534691  0.13181110399311757  0.043782613510325356  1.0000
  C   C116      1.0  0.0394600964068437  0.6318111048030676  0.4562173865368179  1.0000
  C   C117      1.0  0.982661976684101  0.7770609236114527  0.9826534795027918  1.0000
  C   C118      1.0  0.017338023645676423  0.2770609228015027  0.5173465203060172  1.0000
  C   C119      1.0  0.017338023744222355  0.2229390770075458  0.017346520424705487  1.0000
  C   C120      1.0  0.9826619761160905  0.7229390768165944  0.48265347962243776  1.0000
  C   C121      1.0  0.8533370551661199  0.8399083042120635  0.8809842655844465  1.0000
  C   C122      1.0  0.14666294449710088  0.339908304403015  0.61901573422532  1.0000
  C   C123      1.0  0.14666294459564685  0.16009169540603355  0.11901573434400833  1.0000
  C   C124      1.0  0.8533370552646659  0.660091695215082  0.38098426570313493  1.0000
  C   C125      1.0  0.9102262118313141  0.9299944398773278  0.8557977966311516  1.0000
  C   C126      1.0  0.08977378849846318  0.42999444006827914  0.6442022031776573  1.0000
  C   C127      1.0  0.08977378859700913  0.07000555974076936  0.14420220329634564  1.0000
  C   C128      1.0  0.9102262119298601  0.5700055595498179  0.35579779674983997  1.0000
  C   C129      1.0  0.8333174644862399  0.6700353971854542  0.9712378353142757  1.0000
  C   C130      1.0  0.16668253533565197  0.17003539637550422  0.5287621650550625  1.0000
  C   C131      1.0  0.16668253527552696  0.32996460343354433  0.02876216461417919  1.0000
  C   C132      1.0  0.8333174645847857  0.8299646032425929  0.4712378354329641  1.0000
  N   N1        1.0  0.12975958849008123  0.8777300720536306  0.9967032826207005  1.0000
  N   N2        1.0  0.8702404111731395  0.37773007124368063  0.503296717189066  1.0000
  N   N3        1.0  0.8702404112716855  0.12226992856536792  0.0032967173077543426  1.0000
  N   N4        1.0  0.1297595885886272  0.6222699283744164  0.49670328273938896  1.0000
  N   N5        1.0  0.27634782689904147  0.9479365327393757  0.040372300623046496  1.0000
  N   N6        1.0  0.7236521728026002  0.44793653293032715  0.45962769886452515  1.0000
  N   N7        1.0  0.7236521728627253  0.05206346687872144  0.9596276993054085  1.0000
  N   N8        1.0  0.27634782695916643  0.55206346668777  0.5403723010639297  1.0000
  N   N9        1.0  0.5114842668779168  0.33660693796917146  0.9215116349235882  1.0000
  N   N10       1.0  0.48851573294397493  0.8366069377782199  0.5784883654457499  1.0000
  N   N11       1.0  0.4885157330425209  0.6633930616489256  0.07848836556443829  1.0000
  N   N12       1.0  0.5114842668177918  0.16339306183987712  0.421511634482705  1.0000
  N   N13       1.0  0.785112243487015  0.5918731349668899  0.9898447837203855  1.0000
  N   N14       1.0  0.21488775633487683  0.09187313415693985  0.5101552166489526  1.0000
  N   N15       1.0  0.21488775643342278  0.40812686565210865  0.01015521676764094  1.0000
  N   N16       1.0  0.78511224342689  0.9081268654611572  0.4898447832795023  1.0000
  O   O1        1.0  0.22525757002383417  0.7545982161782451  0.12937183424602353  1.0000
  O   O2        1.0  0.7747424298364786  0.25459821536829513  0.37062816580111974  1.0000
  O   O3        1.0  0.7747424297379326  0.24540178444075345  0.8706281656824314  1.0000
  O   O4        1.0  0.22525756992528823  0.745401784249802  0.6293718341273352  1.0000
  O   O5        1.0  0.19042532042811286  0.03809271487478623  0.9295349456797967  1.0000
  O   O6        1.0  0.8095746793937788  0.5380927156847363  0.5704650546895416  1.0000
  O   O7        1.0  0.8095746793336539  0.9619072847433109  0.07046505424865826  1.0000
  O   O8        1.0  0.19042532052665886  0.4619072849342623  0.42953494579848506  1.0000
  P   P1        1.0  0.21129990707833435  0.6845999470038528  0.19901794035140558  1.0000
  P   P2        1.0  0.7887000934485349  0.18459994719480427  0.30098205969478004  1.0000
  P   P3        1.0  0.788700093349989  0.31540005261424425  0.8009820595760918  1.0000
  P   P4        1.0  0.21129990697978837  0.8154000524232928  0.6990179402327172  1.0000
