data_image0
_chemical_formula_structural       H10C18N2F12I2
_chemical_formula_sum              "H10 C18 N2 F12 I2"
_cell_length_a       5.194170706758549
_cell_length_b       8.736255206575127
_cell_length_c       11.809026022688185
_cell_angle_alpha    91.3133505228432
_cell_angle_beta     94.75983975780697
_cell_angle_gamma    91.36034305097418

_space_group_name_H-M_alt    "P 1"
_space_group_IT_number       1

loop_
  _space_group_symop_operation_xyz
  'x, y, z'

loop_
  _atom_site_type_symbol
  _atom_site_label
  _atom_site_symmetry_multiplicity
  _atom_site_fract_x
  _atom_site_fract_y
  _atom_site_fract_z
  _atom_site_occupancy
  H   H1        1.0  0.49671955891094133  0.7054766901845776  0.29491380223040375  1.0000
  H   H2        1.0  0.5032804426711608  0.29452330953915823  0.7050861980437576  1.0000
  H   H3        1.0  0.8201667481195766  0.5479374209551029  0.20709858677755796  1.0000
  H   H4        1.0  0.1798332515369021  0.4520625787566088  0.7929014134965274  1.0000
  H   H5        1.0  0.5886675092083344  0.7592194125569967  0.8875418489545396  1.0000
  H   H6        1.0  0.4113324904481442  0.24078058715471495  0.11245815131954584  1.0000
  H   H7        1.0  0.26554105965476876  0.9031552231407571  0.9890315321038846  1.0000
  H   H8        1.0  0.7344589398401956  0.09684477653379926  0.010968467320218778  1.0000
  H   H9        1.0  0.9293856457885539  0.5829046255565118  0.8883058444079392  1.0000
  H   H10       1.0  0.07061435370641042  0.4170953741180447  0.11169415501616431  1.0000
  C   C1        1.0  0.8778087585743733  0.17428100775623798  0.34818108067470893  1.0000
  C   C2        1.0  0.12219124300772874  0.8257189919674978  0.6518189195994524  1.0000
  C   C3        1.0  0.05366930924285455  0.3062848346766154  0.4053298746914928  1.0000
  C   C4        1.0  0.9463306902521096  0.6937151649979411  0.5946701247326106  1.0000
  C   C5        1.0  0.9146228360416256  0.42801319365457013  0.4780234157181699  1.0000
  C   C6        1.0  0.08537716361485301  0.5719868060571415  0.5219765845559157  1.0000
  C   C7        1.0  0.5210288088963744  0.7116663181717858  0.20420905401324993  1.0000
  C   C8        1.0  0.47897119271002525  0.2883336826966195  0.7957909462545691  1.0000
  C   C9        1.0  0.7029779672259875  0.62441953324223  0.15426844353219746  1.0000
  C   C10       1.0  0.29702203243049125  0.37558046646948173  0.845731556741888  1.0000
  C   C11       1.0  0.7348324015918409  0.6390212182231965  0.03772858038417897  1.0000
  C   C12       1.0  0.26516759806463774  0.36097878148851525  0.9622714198899066  1.0000
  C   C13       1.0  0.5740519454326102  0.7422187420515628  0.9778128668217623  1.0000
  C   C14       1.0  0.42594805406235414  0.25778125762299375  0.022187132602341217  1.0000
  C   C15       1.0  0.39394509746165907  0.8233452186723782  0.03413430196896958  1.0000
  C   C16       1.0  0.6060549021948196  0.1766547810393334  0.9658656983051159  1.0000
  C   C17       1.0  0.9214342086512685  0.5540745984145037  0.977471229093402  1.0000
  C   C18       1.0  0.0785657929308336  0.44592540130923236  0.022528771180759292  1.0000
  N   N1        1.0  0.36824534502954237  0.8094624595120374  0.14556860529354207  1.0000
  N   N2        1.0  0.6317546546269363  0.19053754019967423  0.8544313949805434  1.0000
  F   F1        1.0  0.7481391009092747  0.10346053018262659  0.4291902640095649  1.0000
  F   F2        1.0  0.25186089874720397  0.896539469529085  0.5708097362645206  1.0000
  F   F3        1.0  0.6969393705446005  0.23913075609899637  0.2730363657123116  1.0000
  F   F4        1.0  0.30306062911187814  0.7608692436127154  0.726963634561774  1.0000
  F   F5        1.0  0.24372936750305577  0.24345531921561783  0.47477907055829477  1.0000
  F   F6        1.0  0.7562706321534229  0.7565446804960938  0.5252209297157908  1.0000
  F   F7        1.0  0.16518736655377572  0.38076403268812525  0.3196324270249238  1.0000
  F   F8        1.0  0.8348126331270004  0.6192359681682559  0.6803675732428195  1.0000
  F   F9        1.0  0.8321956575296764  0.3544436570660281  0.5696834010771027  1.0000
  F   F10       1.0  0.16780434198958533  0.6455563437531978  0.4303165983406585  1.0000
  F   F11       1.0  0.7043809326188286  0.47963530909810076  0.41393218870152804  1.0000
  F   F12       1.0  0.29561906706194746  0.5203646917582803  0.5860678115662152  1.0000
  I   I1        1.0  0.09794291961206214  0.006301363917654321  0.25547073789270835  1.0000
  I   I2        1.0  0.90205708197004  0.9936986358060815  0.744529262381453  1.0000
