data_image0
_chemical_formula_structural       H44C52N4O12
_chemical_formula_sum              "H44 C52 N4 O12"
_cell_length_a       8.515024202340058
_cell_length_b       6.868822836322736
_cell_length_c       18.78644017949634
_cell_angle_alpha    90.0
_cell_angle_beta     104.70475096274654
_cell_angle_gamma    90.0

_space_group_name_H-M_alt    "P 1"
_space_group_IT_number       1

loop_
  _space_group_symop_operation_xyz
  'x, y, z'

loop_
  _atom_site_type_symbol
  _atom_site_label
  _atom_site_symmetry_multiplicity
  _atom_site_fract_x
  _atom_site_fract_y
  _atom_site_fract_z
  _atom_site_occupancy
  H   H1        1.0  0.37238352898246213  0.9123288603196634  0.967844690739236  1.0000
  H   H2        1.0  0.6276164710686358  0.4123288600519855  0.5321553089010541  1.0000
  H   H3        1.0  0.627616471247308  0.0876711402156923  0.03215530928752363  1.0000
  H   H4        1.0  0.3723835291611343  0.5876711390275166  0.46784469112570554  1.0000
  H   H5        1.0  0.34551732896088394  0.23846623199222053  0.027286787927451556  1.0000
  H   H6        1.0  0.6544826702334021  0.7384662322598984  0.4727132123443583  1.0000
  H   H7        1.0  0.6544826700547299  0.7615337685431351  0.9727132119578886  1.0000
  H   H8        1.0  0.345517329996368  0.2615337682754573  0.5272867876824014  1.0000
  H   H9        1.0  0.8392674780866966  0.23770707134355373  0.9039506596261341  1.0000
  H   H10       1.0  0.16073252074630612  0.7377070701553781  0.5960493404045794  1.0000
  H   H11       1.0  0.16073252092891738  0.7622929291918019  0.09604934025920606  1.0000
  H   H12       1.0  0.8392674782693078  0.2622929289241241  0.403950659480761  1.0000
  H   H13       1.0  0.8933904989739966  0.9224160996692654  0.8487119805328454  1.0000
  H   H14       1.0  0.10660950107710138  0.42241610085744113  0.6512880191074448  1.0000
  H   H15       1.0  0.10660950125577358  0.0775838994102367  0.15128801949391432  1.0000
  H   H16       1.0  0.8933904991526688  0.5775838996779146  0.34871198091931477  1.0000
  H   H17       1.0  0.18217386341973243  0.5115523742174595  0.04049932127211494  1.0000
  H   H18       1.0  0.8178261369887098  0.011552373949781638  0.4595006791411142  1.0000
  H   H19       1.0  0.8178261368100376  0.4884476248620427  0.9595006787546445  1.0000
  H   H20       1.0  0.18217386324106025  0.9884476251297204  0.5404993208856455  1.0000
  H   H21       1.0  0.15330115327579655  0.7713143338016745  0.8794775544827804  1.0000
  H   H22       1.0  0.8466988467713623  0.2713143335339967  0.6205224456893526  1.0000
  H   H23       1.0  0.8466988469539736  0.22868566673368118  0.12052244554397923  1.0000
  H   H24       1.0  0.15330115345840778  0.7286856655455055  0.37947755433740704  1.0000
  H   H25       1.0  0.5360787192607942  0.41864982232377473  0.9259588938956952  1.0000
  H   H26       1.0  0.4639212795761475  0.9186498225914526  0.5740411056031757  1.0000
  H   H27       1.0  0.46392127975481967  0.581350178211581  0.07404110598964518  1.0000
  H   H28       1.0  0.5360787194394664  0.08135017794390312  0.4259588942821646  1.0000
  H   H29       1.0  0.08437150384737029  0.3168516850501777  0.7586603986214957  1.0000
  H   H30       1.0  0.9156284961997885  0.816851683862002  0.7413396015506372  1.0000
  H   H31       1.0  0.9156284963823997  0.683148315485178  0.24133960140526392  1.0000
  H   H32       1.0  0.08437150402998153  0.18314831521750016  0.25866039847612243  1.0000
  H   H33       1.0  0.12220327430590336  0.0004996562121024754  0.700139867291964  1.0000
  H   H34       1.0  0.8777967257451946  0.5004996564797802  0.7998601323483261  1.0000
  H   H35       1.0  0.8777967247097105  0.9995003443232532  0.2998601325933763  1.0000
  H   H36       1.0  0.12220327448457557  0.49950034405557536  0.20013986767843353  1.0000
  H   H37       1.0  0.38522969086103914  0.8196483013403885  0.7451393436414977  1.0000
  H   H38       1.0  0.6147703091861197  0.3196483010727106  0.7548606565306352  1.0000
  H   H39       1.0  0.614770309368731  0.18035169919496724  0.2548606563852619  1.0000
  H   H40       1.0  0.38522969104365035  0.6803516994626451  0.24513934349612443  1.0000
  H   H41       1.0  0.6038479831680427  0.9554658136318304  0.8457258494705485  1.0000
  H   H42       1.0  0.39615201687911616  0.4554658133641525  0.6542741507015843  1.0000
  H   H43       1.0  0.39615201706172737  0.04453418690352537  0.1542741505562111  1.0000
  H   H44       1.0  0.603847983350654  0.5445341857153496  0.34572584932517525  1.0000
  C   C1        1.0  0.2602277686259639  0.9958289466760981  0.955941240469813  1.0000
  C   C2        1.0  0.739772231421195  0.49582894640842035  0.5440587597023199  1.0000
  C   C3        1.0  0.7397722316038062  0.0041710538592575  0.04405875955694665  1.0000
  C   C4        1.0  0.26022776759441896  0.5041710541269354  0.45594124018302035  1.0000
  C   C5        1.0  0.2417337575065149  0.17261491062633819  0.9885260099008097  1.0000
  C   C6        1.0  0.7582662413264878  0.672614910894016  0.5114739901299036  1.0000
  C   C7        1.0  0.7582662415090989  0.8273850899090175  0.011473989984530353  1.0000
  C   C8        1.0  0.24173375768912614  0.32738508964133967  0.4885260097554366  1.0000
  C   C9        1.0  0.08973642487700215  0.26645701506836833  0.9704070600890463  1.0000
  C   C10       1.0  0.9102635751740957  0.7664570138801926  0.5295929395512436  1.0000
  C   C11       1.0  0.910263575352768  0.7335429854669874  0.02959293993771324  1.0000
  C   C12       1.0  0.08973642384151813  0.2335429851993095  0.47040706033409657  1.0000
  C   C13       1.0  0.9606654671135514  0.17508317635454212  0.9191631710558388  1.0000
  C   C14       1.0  0.039334532933607495  0.6750831751663664  0.5808368291162942  1.0000
  C   C15       1.0  0.03933453311621875  0.8249168241808136  0.08083682897092087  1.0000
  C   C16       1.0  0.9606654672961626  0.3249168239131357  0.41916317091046545  1.0000
  C   C17       1.0  0.9876893787978861  0.9997788651186773  0.8887287763731877  1.0000
  C   C18       1.0  0.01231062124927281  0.4997788648509995  0.611271223798945  1.0000
  C   C19       1.0  0.012310621431884055  0.0002211339608248169  0.11127122365357188  1.0000
  C   C20       1.0  0.9876893789804974  0.5002211342285027  0.38872877622781443  1.0000
  C   C21       1.0  0.07107456259435091  0.4514457562658706  0.004819330159608023  1.0000
  C   C22       1.0  0.9289254378180304  0.9514457550776949  0.4951806697217783  1.0000
  C   C23       1.0  0.9289254376354192  0.5485542442694851  0.9951806698671516  1.0000
  C   C24       1.0  0.07107456241173966  0.04855424400180726  0.5048193303049813  1.0000
  C   C25       1.0  0.2992501371568673  0.5091857401686036  0.8654580796585352  1.0000
  C   C26       1.0  0.7007498628902915  0.009185739900925785  0.6345419205135978  1.0000
  C   C27       1.0  0.7007498630729028  0.490814260366752  0.13454192036822452  1.0000
  C   C28       1.0  0.2992501373394786  0.9908142606344299  0.36545807951316184  1.0000
  C   C29       1.0  0.32231150373007406  0.31938524435352356  0.83132963678717  1.0000
  C   C30       1.0  0.6776884951029286  0.8193852446212014  0.6686703632435436  1.0000
  C   C31       1.0  0.6776884952855399  0.6806147561818321  0.1686703630981703  1.0000
  C   C32       1.0  0.32231150391268537  0.1806147559141543  0.33132963664179665  1.0000
  C   C33       1.0  0.19907272952351554  0.23836615370859313  0.7751186927623541  1.0000
  C   C34       1.0  0.8009272705236434  0.7383661539762709  0.7248813074097789  1.0000
  C   C35       1.0  0.8009272707062546  0.7616338468267626  0.22488130726440556  1.0000
  C   C36       1.0  0.1990727297061268  0.2616338465590847  0.2751186926169808  1.0000
  C   C37       1.0  0.22077945468630575  0.06095946131930868  0.7431697096991642  1.0000
  C   C38       1.0  0.7792205453608532  0.560959460131133  0.7568302904729687  1.0000
  C   C39       1.0  0.7792205455434643  0.9390405392160469  0.2568302903275954  1.0000
  C   C40       1.0  0.22077945486891698  0.4390405389483692  0.24316970955379094  1.0000
  C   C41       1.0  0.36743742493645487  0.9603436596322866  0.7687044143604821  1.0000
  C   C42       1.0  0.6325625751146431  0.46034366082046235  0.731295585279808  1.0000
  C   C43       1.0  0.6325625752933152  0.0396563394472155  0.2312955856662775  1.0000
  C   C44       1.0  0.36743742390097084  0.5396563397148934  0.2687044146055323  1.0000
  C   C45       1.0  0.49105280214687946  0.03577847410773618  0.8252349124979804  1.0000
  C   C46       1.0  0.5089471979042185  0.535778474375414  0.6747650871423098  1.0000
  C   C47       1.0  0.5089471980828907  0.9642215264276195  0.17476508752877923  1.0000
  C   C48       1.0  0.49105280232555165  0.46422152615994167  0.32523491288444994  1.0000
  C   C49       1.0  0.4698332654851552  0.21559988593224766  0.8571036633300839  1.0000
  C   C50       1.0  0.5301667345620038  0.7155998861999255  0.6428963368420489  1.0000
  C   C51       1.0  0.5301667335304586  0.7844001131472544  0.1428963365552563  1.0000
  C   C52       1.0  0.46983326566776645  0.28440011433543017  0.3571036631847107  1.0000
  N   N1        1.0  0.1347812818582891  0.9138250948630341  0.9070878605754513  1.0000
  N   N2        1.0  0.8652187181928088  0.4138250945953563  0.5929121390648388  1.0000
  N   N3        1.0  0.8652187171573249  0.08617490567232156  0.09291213930988888  1.0000
  N   N4        1.0  0.1347812820369613  0.5861749059399993  0.4070878609619209  1.0000
  O   O1        1.0  0.41511283748298494  0.5745691997077104  0.917802684800089  1.0000
  O   O2        1.0  0.584887162564174  0.07456919944003253  0.582197315372044  1.0000
  O   O3        1.0  0.584887161532629  0.4254308008276453  0.08219731508525137  1.0000
  O   O4        1.0  0.41511283766559615  0.9254308010953232  0.4178026846547156  1.0000
  O   O5        1.0  0.16412369582953518  0.5976627346233555  0.8416195848498964  1.0000
  O   O6        1.0  0.8358763042176237  0.09766273435567768  0.6583804153222365  1.0000
  O   O7        1.0  0.835876304400235  0.40233726591200014  0.1583804151768631  1.0000
  O   O8        1.0  0.1641236960121464  0.902337266179678  0.34161958470452325  1.0000
  O   O9        1.0  0.5879118319074019  0.28856285381515556  0.9128035040167513  1.0000
  O   O10       1.0  0.41208816813975696  0.7885628526269799  0.5871964961553817  1.0000
  O   O11       1.0  0.4120881683223682  0.7114371467202001  0.08719649601000845  1.0000
  O   O12       1.0  0.5879118320900132  0.21143714645252226  0.4128035038713779  1.0000
