data_image0
_chemical_formula_structural       H8C16N4F4I2
_chemical_formula_sum              "H8 C16 N4 F4 I2"
_cell_length_a       6.290557914097622
_cell_length_b       8.130774855178634
_cell_length_c       8.946031460379315
_cell_angle_alpha    84.15189595926448
_cell_angle_beta     71.68621558863137
_cell_angle_gamma    78.85660334756925

_space_group_name_H-M_alt    "P 1"
_space_group_IT_number       1

loop_
  _space_group_symop_operation_xyz
  'x, y, z'

loop_
  _atom_site_type_symbol
  _atom_site_label
  _atom_site_symmetry_multiplicity
  _atom_site_fract_x
  _atom_site_fract_y
  _atom_site_fract_z
  _atom_site_occupancy
  H   H1        1.0  0.10557702476331303  0.9972513731567516  0.8718812951085864  1.0000
  H   H2        1.0  0.8944229753279901  0.0027486273546881226  0.12811870421280186  1.0000
  H   H3        1.0  0.8364715881434471  0.2213525997166411  0.7760814000067314  1.0000
  H   H4        1.0  0.16352841194785583  0.7786474007947988  0.22391859931465688  1.0000
  H   H5        1.0  0.4234916770843737  0.39249720520531683  0.4437039332889014  1.0000
  H   H6        1.0  0.5765083230069293  0.6075027953061228  0.5562960660324869  1.0000
  H   H7        1.0  0.6676817425913057  0.16443881334534594  0.5560414071132991  1.0000
  H   H8        1.0  0.33231825697808776  0.8355611870990601  0.44395859338660887  1.0000
  C   C1        1.0  0.9023571456134821  0.4058074009163788  0.13155035654407335  1.0000
  C   C2        1.0  0.09764285447782102  0.5941925995950609  0.8684496427773148  1.0000
  C   C3        1.0  0.13731031225741133  0.3703684619703197  0.06424518965446811  1.0000
  C   C4        1.0  0.8626896873119823  0.6296315384740865  0.9357548108454398  1.0000
  C   C5        1.0  0.23249390249121543  0.4671550919086566  0.9309261348162737  1.0000
  C   C6        1.0  0.767506097399837  0.5328449072827895  0.06907386567276133  1.0000
  C   C7        1.0  0.1690350189128377  0.0885582892148302  0.7784721097052272  1.0000
  C   C8        1.0  0.830964980656556  0.9114417112295757  0.22152789079468074  1.0000
  C   C9        1.0  0.01971782600014306  0.21160556714326545  0.724650942922683  1.0000
  C   C10       1.0  0.9802821740911601  0.7883944333681742  0.2753490563987053  1.0000
  C   C11       1.0  0.11150534852498972  0.3242229092208677  0.6031435999520256  1.0000
  C   C12       1.0  0.8884946531513318  0.6757770912930666  0.39685639937829675  1.0000
  C   C13       1.0  0.34859585289016154  0.30829423034160913  0.5398271117827355  1.0000
  C   C14       1.0  0.6514041470008909  0.691705768849837  0.4601728887062996  1.0000
  C   C15       1.0  0.4827786562505393  0.18127744780518812  0.6018018943843035  1.0000
  C   C16       1.0  0.5172213436405131  0.8187225513862579  0.39819810610473166  1.0000
  N   N1        1.0  0.3955483423831258  0.07311470651605977  0.7190834886940914  1.0000
  N   N2        1.0  0.6044516575079266  0.9268852926753863  0.28091651179494365  1.0000
  N   N3        1.0  0.9545100742058693  0.44565064594157655  0.5491313032735665  1.0000
  N   N4        1.0  0.04548992588543385  0.5543493545698631  0.45086869604782165  1.0000
  F   F1        1.0  0.8008592154591221  0.3164679411452258  0.2628730108366388  1.0000
  F   F2        1.0  0.1991407849538394  0.6835320581132541  0.7371269884738768  1.0000
  F   F3        1.0  0.45990177624786543  0.4369914998157459  0.8577753396524781  1.0000
  F   F4        1.0  0.5400982233215282  0.5630085006286601  0.1422246608474298  1.0000
  I   I1        1.0  0.33939255041409694  0.17622219867474662  0.16047851670340146  1.0000
  I   I2        1.0  0.6606074491552967  0.8237778017696593  0.8395214837965064  1.0000
