data_image0
_chemical_formula_structural       H24C32N8I4
_chemical_formula_sum              "H24 C32 N8 I4"
_cell_length_a       9.73985042520648
_cell_length_b       9.481224355870555
_cell_length_c       8.761587257547
_cell_angle_alpha    90.0
_cell_angle_beta     102.84020768080754
_cell_angle_gamma    90.0

_space_group_name_H-M_alt    "P 1"
_space_group_IT_number       1

loop_
  _space_group_symop_operation_xyz
  'x, y, z'

loop_
  _atom_site_type_symbol
  _atom_site_label
  _atom_site_symmetry_multiplicity
  _atom_site_fract_x
  _atom_site_fract_y
  _atom_site_fract_z
  _atom_site_occupancy
  H   H1        1.0  0.48439626109550477  0.7943453585018007  0.32153176346211443  1.0000
  H   H2        1.0  0.515603738541686  0.29434535933874717  0.1784682368770579  1.0000
  H   H3        1.0  0.515603738604607  0.20565464087902247  0.6784682369979472  1.0000
  H   H4        1.0  0.4843962611584258  0.705654641096792  0.8215317635830037  1.0000
  H   H5        1.0  0.6350935102527807  0.2149173907838512  0.4602555382222144  1.0000
  H   H6        1.0  0.36490649041632456  0.7149173910016208  0.039744462144404656  1.0000
  H   H7        1.0  0.3649064904792456  0.785082609651688  0.539744462265294  1.0000
  H   H8        1.0  0.6350935101058182  0.2850826094339184  0.960255537172807  1.0000
  H   H9        1.0  0.31081928940239323  0.1727310681121023  0.14306749693214513  1.0000
  H   H10       1.0  0.6891807102347974  0.672731068329872  0.35693250340702715  1.0000
  H   H11       1.0  0.6891807102977185  0.8272689312687208  0.8569325035279164  1.0000
  H   H12       1.0  0.31081928946531434  0.32726893105095123  0.6430674970530345  1.0000
  H   H13       1.0  0.21114346119691485  0.21548765785032475  0.37874858722659094  1.0000
  H   H14       1.0  0.7888565394721904  0.7154876580680944  0.12125141314002809  1.0000
  H   H15       1.0  0.7888565395351115  0.7845123415304983  0.6212514132609174  1.0000
  H   H16       1.0  0.2111434610499523  0.28451234131272873  0.8787485861771834  1.0000
  H   H17       1.0  0.9913443375743376  0.8187298178629854  0.28306733624470914  1.0000
  H   H18       1.0  0.00865566309476771  0.31872981764521574  0.21693266412190987  1.0000
  H   H19       1.0  0.008655663157688754  0.18127018257255387  0.7169326642427992  1.0000
  H   H20       1.0  0.9913443376372586  0.6812701827903235  0.7830673363655984  1.0000
  H   H21       1.0  0.0993533999359233  0.7917297553825005  0.05097269636651492  1.0000
  H   H22       1.0  0.9006465997012675  0.2917297551647309  0.4490273039726574  1.0000
  H   H23       1.0  0.9006465997641885  0.20827024505303873  0.9490273040935467  1.0000
  H   H24       1.0  0.09935339999884434  0.7082702442160922  0.5509726964874042  1.0000
  C   C1        1.0  0.5691596329870107  0.00423472206679086  0.3767435967708525  1.0000
  C   C2        1.0  0.43084036665018005  0.5042347222845605  0.12325640356831981  1.0000
  C   C3        1.0  0.43084036671310116  0.9957652783687483  0.6232564036892091  1.0000
  C   C4        1.0  0.5691596330499317  0.49576527815097876  0.8767435968917417  1.0000
  C   C5        1.0  0.49266947183692855  0.8844943074053012  0.40003802974992553  1.0000
  C   C6        1.0  0.5073305288321767  0.38449430718753164  0.09996197061669355  1.0000
  C   C7        1.0  0.5073305288950978  0.11550569303023797  0.5999619707375828  1.0000
  C   C8        1.0  0.49266947189984955  0.6155056932480075  0.9000380298708148  1.0000
  C   C9        1.0  0.5763306406063006  0.12032075470228171  0.4766049407321172  1.0000
  C   C10       1.0  0.4236693590308902  0.6203207538653351  0.023395059607055072  1.0000
  C   C11       1.0  0.4236693590938112  0.8796792457332574  0.5233950597279443  1.0000
  C   C12       1.0  0.5763306406692217  0.3796792455154879  0.9766049408530066  1.0000
  C   C13       1.0  0.23937193154381312  0.09634295800989176  0.1776452709258336  1.0000
  C   C14       1.0  0.7606280689154086  0.5963429571729453  0.3223547282704887  1.0000
  C   C15       1.0  0.7606280689783297  0.9036570424256475  0.822354728391378  1.0000
  C   C16       1.0  0.23937193160673415  0.40365704220787785  0.6776452710467229  1.0000
  C   C17       1.0  0.18413492068492146  0.12034880698646117  0.3089216879139817  1.0000
  C   C18       1.0  0.8158650799841838  0.6203488072042307  0.19107831245263734  1.0000
  C   C19       1.0  0.8158650800471049  0.879651193449078  0.6910783125735268  1.0000
  C   C20       1.0  0.184134919715928  0.37965119323130847  0.8089216880074243  1.0000
  C   C21       1.0  0.0930829435976871  0.019514704330927245  0.34891455682500294  1.0000
  C   C22       1.0  0.9069170568615346  0.5195147045486967  0.15108544237131935  1.0000
  C   C23       1.0  0.9069170569244556  0.980485296104612  0.6510854424922087  1.0000
  C   C24       1.0  0.09308294262869363  0.48048529588684236  0.8489145569184454  1.0000
  C   C25       1.0  0.06207407627281378  0.898470638417651  0.25547240781525293  1.0000
  C   C26       1.0  0.9379259243962915  0.3984706381998815  0.24452759255136614  1.0000
  C   C27       1.0  0.9379259244592125  0.10152936201788815  0.7445275926722554  1.0000
  C   C28       1.0  0.062074076125851245  0.6015293611809417  0.7554724067658454  1.0000
  C   C29       1.0  0.12227074185307947  0.8843842003177758  0.12657326816618733  1.0000
  C   C30       1.0  0.8777292588160259  0.3843842001000062  0.37342673220043177  1.0000
  C   C31       1.0  0.8777292588789468  0.11561579906304728  0.8734267323213211  1.0000
  C   C32       1.0  0.12227074191600053  0.6156157992808169  0.6265732682870766  1.0000
  N   N1        1.0  0.20894601451088607  0.9814545137557384  0.08692445077456129  1.0000
  N   N2        1.0  0.7910539861582192  0.4814545135379688  0.4130755495920578  1.0000
  N   N3        1.0  0.7910539849793421  0.018545486679800768  0.9130755485152035  1.0000
  N   N4        1.0  0.2089460145738071  0.5185454868975704  0.5869244508954505  1.0000
  N   N5        1.0  0.035329241936678406  0.05014140074700818  0.4799214283136488  1.0000
  N   N6        1.0  0.9646707587324267  0.5501414009647778  0.02007857205297024  1.0000
  N   N7        1.0  0.9646707587953479  0.949858598633815  0.5200785721738596  1.0000
  N   N8        1.0  0.035329241999599484  0.4498585984160453  0.9799214284345383  1.0000
  I   I1        1.0  0.6716485074516841  0.0108770182129638  0.1877879397085172  1.0000
  I   I2        1.0  0.3283514921855066  0.5108770184307334  0.31221206063065504  1.0000
  I   I3        1.0  0.32835149224842763  0.9891229811678592  0.8122120607515443  1.0000
  I   I4        1.0  0.6716485075146051  0.48912298095008966  0.6877879398294066  1.0000
