data_image0
_chemical_formula_structural       H26C28N4O2F8Br2
_chemical_formula_sum              "H26 C28 N4 O2 F8 Br2"
_cell_length_a       4.397958979929474
_cell_length_b       12.556584208293224
_cell_length_c       13.30634985279352
_cell_angle_alpha    81.00651884204233
_cell_angle_beta     82.99222197839536
_cell_angle_gamma    88.81199884380568

_space_group_name_H-M_alt    "P 1"
_space_group_IT_number       1

loop_
  _space_group_symop_operation_xyz
  'x, y, z'

loop_
  _atom_site_type_symbol
  _atom_site_label
  _atom_site_symmetry_multiplicity
  _atom_site_fract_x
  _atom_site_fract_y
  _atom_site_fract_z
  _atom_site_occupancy
  H   H1        1.0  0.3976160513017218  0.2815443299270922  0.5202241341825897  1.0000
  H   H2        1.0  0.602383949850592  0.7184556698558631  0.47977586546895096  1.0000
  H   H3        1.0  0.9197196680760766  0.3853422967548348  0.5343216524052342  1.0000
  H   H4        1.0  0.08028033052397202  0.6146577028956546  0.4656783480113892  1.0000
  H   H5        1.0  0.11979813372214884  0.4717190097477336  0.5968783539461568  1.0000
  H   H6        1.0  0.8802018670834697  0.528280990705887  0.4031216464725638  1.0000
  H   H7        1.0  0.7339043899993465  0.438150281141863  0.6421555669038423  1.0000
  H   H8        1.0  0.26609560881294747  0.5618497194307899  0.35784443274708794  1.0000
  H   H9        1.0  0.6696423271969307  0.31993019707909504  0.9154707631006401  1.0000
  H   H10       1.0  0.330357671335893  0.680069803367809  0.0845292373167266  1.0000
  H   H11       1.0  0.5416862566166946  0.3796046809189412  0.7976990744149981  1.0000
  H   H12       1.0  0.4583137445356193  0.620395318864014  0.2023009252365427  1.0000
  H   H13       1.0  0.85697181946899  0.4353881854850641  0.841484243668862  1.0000
  H   H14       1.0  0.14302817906383375  0.5646118149618397  0.1585157567485048  1.0000
  H   H15       1.0  0.2357982624653201  0.021232050748994515  0.9342838148229289  1.0000
  H   H16       1.0  0.7642017384075234  0.9787679489082117  0.0657161855950485  1.0000
  H   H17       1.0  0.6165451359486879  0.058181732852775364  0.8819636263554791  1.0000
  H   H18       1.0  0.38345486513640115  0.9418182677265943  0.11803637329680508  1.0000
  H   H19       1.0  0.41237447231165597  0.967810182515559  0.8251247106487974  1.0000
  H   H20       1.0  0.5876255265006382  0.032189818057093894  0.17487528900213267  1.0000
  H   H21       1.0  0.6617975862476706  0.12233473141907839  0.5576985285168573  1.0000
  H   H22       1.0  0.338202414557948  0.877665269034542  0.4423014719018635  1.0000
  H   H23       1.0  0.4813824024275169  0.007651172435510692  0.63577279833252  1.0000
  H   H24       1.0  0.518617598657572  0.9923488281438588  0.36422720131976427  1.0000
  H   H25       1.0  0.7929698474391781  0.06852098558497514  0.6765348227665468  1.0000
  H   H26       1.0  0.2070301537131357  0.93147901419798  0.32346517688499415  1.0000
  C   C1        1.0  0.4218887917861341  0.2975840198340205  0.3648639521084657  1.0000
  C   C2        1.0  0.5781112092989548  0.702415980745349  0.6351360475438185  1.0000
  C   C3        1.0  0.5264076136047119  0.35962267381951085  0.2698193275624972  1.0000
  C   C4        1.0  0.47359238527480696  0.6403773259567276  0.7301806720876896  1.0000
  C   C5        1.0  0.4394164047773594  0.3386940110690541  0.1778051767352805  1.0000
  C   C6        1.0  0.5605835963749545  0.661305988713901  0.8221948229162603  1.0000
  C   C7        1.0  0.24355511140179426  0.25314321801359774  0.17531876086424264  1.0000
  C   C8        1.0  0.7564448871982544  0.7468567816368917  0.8246812395523807  1.0000
  C   C9        1.0  0.1372330182678145  0.19137106682203067  0.26892082016104196  1.0000
  C   C10       1.0  0.8627669806117043  0.8086289329542078  0.7310791794891448  1.0000
  C   C11       1.0  0.22430721385064342  0.21228786371123307  0.3608620959478776  1.0000
  C   C12       1.0  0.7756927850288754  0.7877121360650055  0.6391379037023093  1.0000
  C   C13       1.0  0.05866581037659842  0.3105178350850899  0.6772434653381216  1.0000
  C   C14       1.0  0.9413341904962451  0.6894821645721164  0.32275653507985563  1.0000
  C   C15       1.0  0.9606951948050899  0.28725011786112553  0.7831793245481395  1.0000
  C   C16       1.0  0.03930480606775348  0.7127498817960808  0.2168206758698378  1.0000
  C   C17       1.0  0.2699572476659206  0.13437798819168653  0.7957081874787679  1.0000
  C   C18       1.0  0.7300427532069228  0.8656220114655196  0.20429181293920942  1.0000
  C   C19       1.0  0.3698175857951832  0.15711458009347606  0.6897908125478136  1.0000
  C   C20       1.0  0.6301824150104355  0.8428854203601445  0.3102091878709071  1.0000
  C   C21       1.0  0.9506904283951026  0.40632653811590275  0.6092414773567257  1.0000
  C   C22       1.0  0.04930957241051623  0.5936734623377178  0.39075852306199504  1.0000
  C   C23       1.0  0.7444610278251921  0.35901499003160875  0.8373274382037695  1.0000
  C   C24       1.0  0.25553897325989694  0.6409850105477608  0.16267256144851475  1.0000
  C   C25       1.0  0.38892846662791686  0.0397249609021927  0.86260104603559  1.0000
  C   C26       1.0  0.6110715342449266  0.9602750387550134  0.1373989543823874  1.0000
  C   C27       1.0  0.5892047298113743  0.08563162933729351  0.6367457778214245  1.0000
  C   C28       1.0  0.4107952690009199  0.9143683712353591  0.3632542218295057  1.0000
  N   N1        1.0  0.2624509834353248  0.24485602649290372  0.6335098261369005  1.0000
  N   N2        1.0  0.7375490151647236  0.7551439731575857  0.36649017427972297  1.0000
  N   N3        1.0  0.06790234915879859  0.19964177411396594  0.8399369217825979  1.0000
  N   N4        1.0  0.9320976494412501  0.8003582255365235  0.1600630786340256  1.0000
  O   O1        1.0  0.5160319812153094  0.32107942100159553  0.4503829973910532  1.0000
  O   O2        1.0  0.4839680199370042  0.6789205787813596  0.5496170022604877  1.0000
  F   F1        1.0  0.7211390808543168  0.44284203239407127  0.268394753628592  1.0000
  F   F2        1.0  0.2788609202979971  0.5571579673888841  0.7316052460229487  1.0000
  F   F3        1.0  0.547695131723243  0.40348402814298856  0.09025980711300319  1.0000
  F   F4        1.0  0.4523048690823756  0.5965159723106319  0.9097401933057174  1.0000
  F   F5        1.0  0.9438152068133265  0.10772379889418567  0.2718806562011719  1.0000
  F   F6        1.0  0.05618479427176247  0.892276201685184  0.7281193434511123  1.0000
  F   F7        1.0  0.1195079451443208  0.147351656431437  0.44947242007814275  1.0000
  F   F8        1.0  0.8804920533885031  0.8526483440154669  0.550527580339224  1.0000
  Br  Br1       1.0  0.13404766080045633  0.2214585072886647  0.050211337243702664  1.0000
  Br  Br2       1.0  0.8659523402846326  0.7785414932907048  0.9497886624085814  1.0000
