data_image0
_chemical_formula_structural       H22C26N2O4Br2
_chemical_formula_sum              "H22 C26 N2 O4 Br2"
_cell_length_a       7.089987923729481
_cell_length_b       7.449766589204229
_cell_length_c       11.080594243834625
_cell_angle_alpha    94.07887255912084
_cell_angle_beta     94.08851971409763
_cell_angle_gamma    103.49394454359812

_space_group_name_H-M_alt    "P 1"
_space_group_IT_number       1

loop_
  _space_group_symop_operation_xyz
  'x, y, z'

loop_
  _atom_site_type_symbol
  _atom_site_label
  _atom_site_symmetry_multiplicity
  _atom_site_fract_x
  _atom_site_fract_y
  _atom_site_fract_z
  _atom_site_occupancy
  H   H1        1.0  0.42701842498877407  0.08762965032614779  0.2724365938043518  1.0000
  H   H2        1.0  0.5729815737812117  0.9123703491853974  0.7275634061772815  1.0000
  H   H3        1.0  0.6364693654960312  0.87227118927979  0.3264494825528207  1.0000
  H   H4        1.0  0.36353063468483804  0.12772881023344065  0.6735505174290982  1.0000
  H   H5        1.0  0.17390915344066957  0.5952088645089119  0.5311931624450316  1.0000
  H   H6        1.0  0.8260908467401998  0.4047911350043188  0.46880683753688734  1.0000
  H   H7        1.0  0.9859908576851542  0.8180824906864754  0.46561542754093654  1.0000
  H   H8        1.0  0.014009141084831606  0.18191750882506974  0.5343845724406967  1.0000
  H   H9        1.0  0.6760351554247911  0.6651586115202304  0.5280361479530918  1.0000
  H   H10       1.0  0.3239648450935803  0.33484138937410574  0.4719638520338714  1.0000
  H   H11       1.0  0.6061820973483782  0.5373374079345575  0.38476084201886174  1.0000
  H   H12       1.0  0.39381790283249113  0.4626625915786731  0.6152391579630572  1.0000
  H   H13       1.0  0.08026981561863002  0.08766673584092857  0.317143631890681  1.0000
  H   H14       1.0  0.9197301848997415  0.9123332650534074  0.6828563680962823  1.0000
  H   H15       1.0  0.24529938884527017  0.6376223815465736  0.14332068144487176  1.0000
  H   H16       1.0  0.7547006113355992  0.362377617966657  0.8566793185370472  1.0000
  H   H17       1.0  0.06905647545140899  0.8649921502278166  0.06746924840257365  1.0000
  H   H18       1.0  0.9309435247294604  0.13500784928541415  0.9325307515793453  1.0000
  H   H19       1.0  0.523754735451987  0.5059859212115618  0.14255296389998431  1.0000
  H   H20       1.0  0.4762452650663844  0.4940140796827742  0.8574470360869788  1.0000
  H   H21       1.0  0.7027240505684962  0.28304927810561575  0.21776527956769196  1.0000
  H   H22       1.0  0.2972759496123733  0.7169507214076148  0.7822347204142269  1.0000
  C   C1        1.0  0.37903569926462566  0.9751488985085495  0.32944420895865245  1.0000
  C   C2        1.0  0.6209643009162438  0.024851101004681225  0.6705557910232665  1.0000
  C   C3        1.0  0.49326034570394656  0.8545637758911602  0.3603539635196391  1.0000
  C   C4        1.0  0.5067396544769227  0.14543622362207045  0.6396460364622798  1.0000
  C   C5        1.0  0.4235622444834409  0.7121101290435364  0.4339298927355913  1.0000
  C   C6        1.0  0.5764377556974285  0.2878898704696942  0.5660701072463276  1.0000
  C   C7        1.0  0.23759553948432002  0.7000222451681226  0.47263372200336445  1.0000
  C   C8        1.0  0.7624044606965493  0.2999777543451081  0.5273662779785545  1.0000
  C   C9        1.0  0.13151019998654873  0.825633981942815  0.4370033062232555  1.0000
  C   C10       1.0  0.8684898005318227  0.17436601895152098  0.5629966937637078  1.0000
  C   C11       1.0  0.5495484935444622  0.5834661990397765  0.46832621511769496  1.0000
  C   C12       1.0  0.45045150663640726  0.41653380047345423  0.5316737848642239  1.0000
  C   C13       1.0  0.9861594718707063  0.44724485791857965  0.1876172743322278  1.0000
  C   C14       1.0  0.013840528647665188  0.5527551429757565  0.8123827256547353  1.0000
  C   C15       1.0  0.09748958911345386  0.31741734136746663  0.23606221494494883  1.0000
  C   C16       1.0  0.9025104110674155  0.6825826581457639  0.76393778503697  1.0000
  C   C17       1.0  0.08776756496872734  0.6103271368450274  0.14341109287862544  1.0000
  C   C18       1.0  0.9122324338012584  0.3896728626665177  0.8565889071030077  1.0000
  C   C19       1.0  0.9896431925136707  0.7375760833311042  0.10066598224000087  1.0000
  C   C20       1.0  0.010356807667198625  0.26242391618212646  0.899334017741918  1.0000
  C   C21       1.0  0.7876187837144908  0.6992969662534586  0.10150138739487014  1.0000
  C   C22       1.0  0.21238121646637867  0.300703033259772  0.8984986125870488  1.0000
  C   C23       1.0  0.6815686642946167  0.5364890797225205  0.14234805299173403  1.0000
  C   C24       1.0  0.3184313362237548  0.4635109211718156  0.8576519469952291  1.0000
  C   C25       1.0  0.7828670894931908  0.41115221490919945  0.18569069684783046  1.0000
  C   C26       1.0  0.21713291068767845  0.5888477846040311  0.8143093031340886  1.0000
  N   N1        1.0  0.20019021602436385  0.9613073547117893  0.36695230283727337  1.0000
  N   N2        1.0  0.7998097844940076  0.038692646182546774  0.6330476971496899  1.0000
  O   O1        1.0  0.9894466531634764  0.17317426131731548  0.2832620733264779  1.0000
  O   O2        1.0  0.01055334701739303  0.8268257381959153  0.716737926655441  1.0000
  O   O3        1.0  0.27629366958293045  0.3445837023758354  0.2338213501405351  1.0000
  O   O4        1.0  0.723706330935441  0.6554162985185008  0.766178649846428  1.0000
  Br  Br1       1.0  0.6544870175957024  0.8771736931742572  0.04642678783032885  1.0000
  Br  Br2       1.0  0.3455129811742833  0.12282630633728807  0.9535732121513044  1.0000
