data_image0
_chemical_formula_structural       H56C96N8O8F32Br8
_chemical_formula_sum              "H56 C96 N8 O8 F32 Br8"
_cell_length_a       26.010658017023626
_cell_length_b       4.675688180027462
_cell_length_c       20.10385747588277
_cell_angle_alpha    90.0
_cell_angle_beta     103.19206059226183
_cell_angle_gamma    90.0

_space_group_name_H-M_alt    "P 1"
_space_group_IT_number       1

loop_
  _space_group_symop_operation_xyz
  'x, y, z'

loop_
  _atom_site_type_symbol
  _atom_site_label
  _atom_site_symmetry_multiplicity
  _atom_site_fract_x
  _atom_site_fract_y
  _atom_site_fract_z
  _atom_site_occupancy
  H   H1        1.0  0.1562940887759598  0.4189242384398045  0.24319432543415723  1.0000
  H   H2        1.0  0.8437059112593159  0.4189242384398045  0.25680567417914507  1.0000
  H   H3        1.0  0.6562940887454491  0.9189242384368678  0.24319432569852162  1.0000
  H   H4        1.0  0.3437059113810054  0.9189242384368678  0.25680567442567814  1.0000
  H   H5        1.0  0.8437059115379707  0.5810757615543222  0.7568056742855134  1.0000
  H   H6        1.0  0.15629408867040712  0.5810757615543222  0.7431943255419363  1.0000
  H   H7        1.0  0.34370591127545275  0.08107576155725883  0.7568056745334573  1.0000
  H   H8        1.0  0.6562940886398965  0.08107576155725883  0.7431943258063007  1.0000
  H   H9        1.0  0.24197457577381992  0.1926050081454984  0.27866756664809966  1.0000
  H   H10       1.0  0.7580254239684271  0.1926050081454984  0.22133243347751091  1.0000
  H   H11       1.0  0.7419745760363379  0.6926050081425617  0.2786675664001558  1.0000
  H   H12       1.0  0.2580254240901167  0.6926050081425617  0.2213324337240439  1.0000
  H   H13       1.0  0.7580254242470821  0.8073949918486282  0.7213324335838792  1.0000
  H   H14       1.0  0.24197457605247472  0.8073949918486282  0.778667566754468  1.0000
  H   H15       1.0  0.2580254238933852  0.3073949918515649  0.7213324333209257  1.0000
  H   H16       1.0  0.7419745759307852  0.3073949918515649  0.7786675665079349  1.0000
  H   H17       1.0  0.2794059951203984  0.868953615716978  0.3746281252805047  1.0000
  H   H18       1.0  0.7205940046218487  0.868953615716978  0.1253718748451058  1.0000
  H   H19       1.0  0.7794059954740952  0.3689536157199148  0.37462812554345826  1.0000
  H   H20       1.0  0.22059400465235934  0.3689536157199148  0.12537187458074145  1.0000
  H   H21       1.0  0.7205940048093246  0.13104638427714851  0.6253718744405768  1.0000
  H   H22       1.0  0.2794059953990532  0.13104638427714851  0.874628125386873  1.0000
  H   H23       1.0  0.2205940045468067  0.6310463842742118  0.6253718746885205  1.0000
  H   H24       1.0  0.7794059952773637  0.6310463842742118  0.8746281251403399  1.0000
  H   H25       1.0  0.128791784446831  0.9027203520606049  0.43158705086928284  1.0000
  H   H26       1.0  0.8712082156796236  0.9027203520606049  0.0684129492549169  1.0000
  H   H27       1.0  0.6287917843251414  0.4027203520635417  0.43158705062274977  1.0000
  H   H28       1.0  0.37120821571013424  0.4027203520635417  0.06841294899055253  1.0000
  H   H29       1.0  0.8712082155740709  0.09727964793352163  0.568412949362696  1.0000
  H   H30       1.0  0.1287917843412783  0.09727964793352163  0.931587050977062  1.0000
  H   H31       1.0  0.37120821560458156  0.597279647930585  0.5684129490983316  1.0000
  H   H32       1.0  0.6287917842195887  0.597279647930585  0.9315870507305289  1.0000
  H   H33       1.0  0.0971777927025615  0.22385337081949133  0.3318660370103116  1.0000
  H   H34       1.0  0.9028222069485068  0.22385337081949133  0.16813396260440153  1.0000
  H   H35       1.0  0.5971777930562583  0.7238533708165547  0.33186603727326514  1.0000
  H   H36       1.0  0.4028222070701963  0.7238533708165547  0.16813396285093457  1.0000
  H   H37       1.0  0.9028222072271616  0.7761466291746353  0.6681339627107699  1.0000
  H   H38       1.0  0.0971777929812163  0.7761466291746353  0.83186603711668  1.0000
  H   H39       1.0  0.4028222069646436  0.276146629177572  0.6681339629587137  1.0000
  H   H40       1.0  0.5971777929507056  0.276146629177572  0.8318660373810445  1.0000
  H   H41       1.0  0.2483430412147755  0.4806947990246003  0.4558956336327878  1.0000
  H   H42       1.0  0.751656958911679  0.4806947990246003  0.04410436649141196  1.0000
  H   H43       1.0  0.7483430410930859  0.9806947990216636  0.4558956333862547  1.0000
  H   H44       1.0  0.2516569590333686  0.9806947990216636  0.044104366737944975  1.0000
  H   H45       1.0  0.7516569591903338  0.5193052009695263  0.5441043665977803  1.0000
  H   H46       1.0  0.24834304101804397  0.5193052009695263  0.9558956332296694  1.0000
  H   H47       1.0  0.2516569589278159  0.019305200972463018  0.5441043668457242  1.0000
  H   H48       1.0  0.7483430409875332  0.019305200972463018  0.955895633494034  1.0000
  H   H49       1.0  0.19732399897826092  0.5914165195643475  0.49535047438142055  1.0000
  H   H50       1.0  0.8026760007639862  0.5914165195643475  0.00464952574418993  1.0000
  H   H51       1.0  0.6973239992407789  0.09141651956728421  0.4953504741334767  1.0000
  H   H52       1.0  0.3026760008856757  0.09141651956728421  0.004649525990722945  1.0000
  H   H53       1.0  0.802676001042641  0.4085834804297791  0.5046495258505583  1.0000
  H   H54       1.0  0.19732399916573684  0.4085834804297791  0.9953504739768916  1.0000
  H   H55       1.0  0.3026760006889442  0.9085834804268423  0.5046495255876047  1.0000
  H   H56       1.0  0.697323999135226  0.9085834804268423  0.9953504742412558  1.0000
  C   C1        1.0  0.11898533685567018  0.7172392642274753  0.172837510929485  1.0000
  C   C2        1.0  0.8810146632707844  0.7172392642274753  0.3271624891947147  1.0000
  C   C3        1.0  0.6189853367339806  0.21723926423041198  0.17283751068295197  1.0000
  C   C4        1.0  0.3810146633012951  0.21723926423041198  0.3271624889303503  1.0000
  C   C5        1.0  0.8810146631652317  0.28276073576665134  0.8271624893024938  1.0000
  C   C6        1.0  0.11898533675011752  0.28276073576665134  0.6728375110372642  1.0000
  C   C7        1.0  0.3810146631957424  0.7827607357637146  0.8271624890381296  1.0000
  C   C8        1.0  0.6189853370126355  0.7827607357637146  0.6728375107893203  1.0000
  C   C9        1.0  0.12304602179776644  0.9142978863006411  0.12136406956570937  1.0000
  C   C10       1.0  0.8769539782375093  0.9142978863006411  0.3786359300475929  1.0000
  C   C11       1.0  0.6230460217672558  0.4142978863035778  0.12136406983007375  1.0000
  C   C12       1.0  0.3769539783591988  0.4142978863035778  0.3786359302941259  1.0000
  C   C13       1.0  0.876953978516164  0.08570211369348553  0.8786359301539612  1.0000
  C   C14       1.0  0.12304602169221376  0.08570211369348553  0.6213640696734886  1.0000
  C   C15       1.0  0.3769539782536462  0.5857021136905488  0.8786359304019052  1.0000
  C   C16       1.0  0.6230460216617031  0.5857021136905488  0.6213640699378529  1.0000
  C   C17       1.0  0.08122335595754383  0.08724836308429874  0.08977005878810712  1.0000
  C   C18       1.0  0.9187766436935244  0.08724836308429874  0.41022994082660597  1.0000
  C   C19       1.0  0.5812233563112406  0.5872483630813621  0.08977005905106068  1.0000
  C   C20       1.0  0.41877664381521396  0.5872483630813621  0.410229941073139  1.0000
  C   C21       1.0  0.9187766439721792  0.9127516369098279  0.9102299409329742  1.0000
  C   C22       1.0  0.08122335623619861  0.9127516369098279  0.5897700588944755  1.0000
  C   C23       1.0  0.4187766437096613  0.41275163691276456  0.9102299411809183  1.0000
  C   C24       1.0  0.581223356205688  0.41275163691276456  0.5897700591588398  1.0000
  C   C25       1.0  0.03252211772875667  0.07150069832031365  0.10772237761926966  1.0000
  C   C26       1.0  0.967477882306519  0.07150069832031365  0.3922776219940327  1.0000
  C   C27       1.0  0.532522117698246  0.5715006983173769  0.10772237788363401  1.0000
  C   C28       1.0  0.46747788242820854  0.5715006983173769  0.39227762224056567  1.0000
  C   C29       1.0  0.9674778822009663  0.928499301673813  0.8922776221018117  1.0000
  C   C30       1.0  0.032522117623204  0.928499301673813  0.6077223777270488  1.0000
  C   C31       1.0  0.4674778823226559  0.42849930167674966  0.892277622348345  1.0000
  C   C32       1.0  0.5325221175926933  0.42849930167674966  0.6077223779914133  1.0000
  C   C33       1.0  0.027621911533937282  0.8778826029360862  0.1587171328577707  1.0000
  C   C34       1.0  0.9723780885013383  0.8778826029360862  0.3412828667555316  1.0000
  C   C35       1.0  0.5276219115034266  0.37788260293902287  0.1587171331221351  1.0000
  C   C36       1.0  0.4723780886230279  0.37788260293902287  0.3412828670020646  1.0000
  C   C37       1.0  0.9723780883957858  0.12211739705804044  0.8412828668633109  1.0000
  C   C38       1.0  0.02762191142838462  0.12211739705804044  0.6587171329655499  1.0000
  C   C39       1.0  0.4723780885174753  0.6221173970551037  0.8412828671098438  1.0000
  C   C40       1.0  0.5276219113978738  0.6221173970551037  0.6587171332299142  1.0000
  C   C41       1.0  0.06962908880461675  0.7049434656655484  0.19022759127625244  1.0000
  C   C42       1.0  0.9303709109376304  0.7049434656655484  0.3097724088493581  1.0000
  C   C43       1.0  0.5696290890671346  0.20494346566848515  0.19022759102830858  1.0000
  C   C44       1.0  0.43037091105931996  0.20494346566848515  0.3097724090958911  1.0000
  C   C45       1.0  0.9303709112162852  0.29505653432857815  0.8097724089557264  1.0000
  C   C46       1.0  0.06962908899209268  0.29505653432857815  0.6902275908717235  1.0000
  C   C47       1.0  0.43037091086258833  0.7950565343256415  0.8097724086927729  1.0000
  C   C48       1.0  0.5696290889615819  0.7950565343256415  0.6902275911360878  1.0000
  C   C49       1.0  0.21787979822186915  0.12112641780074257  0.3133520733870256  1.0000
  C   C50       1.0  0.7821202019045854  0.12112641780074257  0.18664792673717415  1.0000
  C   C51       1.0  0.7178797981913585  0.6211264177978059  0.3133520736513899  1.0000
  C   C52       1.0  0.28212020193509607  0.6211264177978059  0.18664792647280976  1.0000
  C   C53       1.0  0.7821202017078539  0.878873582193384  0.6866479263340559  1.0000
  C   C54       1.0  0.21787979811631644  0.878873582193384  0.8133520734948047  1.0000
  C   C55       1.0  0.2821202018295434  0.3788735821963207  0.6866479265805889  1.0000
  C   C56       1.0  0.7178797979946269  0.3788735821963207  0.8133520732482717  1.0000
  C   C57       1.0  0.23869764755640588  0.9400906991137683  0.36751669179899565  1.0000
  C   C58       1.0  0.7613023521858412  0.9400906991137683  0.1324833083266148  1.0000
  C   C59       1.0  0.7386976479101027  0.44009069911670506  0.3675166920619492  1.0000
  C   C60       1.0  0.26130235221635184  0.44009069911670506  0.13248330806225048  1.0000
  C   C61       1.0  0.761302352373317  0.05990930088035827  0.6324833079220858  1.0000
  C   C62       1.0  0.23869764783506067  0.05990930088035827  0.867516691905364  1.0000
  C   C63       1.0  0.26130235249500666  0.5599093008774216  0.6324833081686188  1.0000
  C   C64       1.0  0.7386976477133711  0.5599093008774216  0.8675166916588309  1.0000
  C   C65       1.0  0.20718434044931383  0.8558937349788145  0.41205691076476314  1.0000
  C   C66       1.0  0.7928156592929332  0.8558937349788145  0.08794308936084734  1.0000
  C   C67       1.0  0.7071843407118318  0.3558937349817512  0.4120569105168193  1.0000
  C   C68       1.0  0.29281565932344394  0.3558937349817512  0.08794308909648298  1.0000
  C   C69       1.0  0.7928156595715881  0.14410626501531215  0.5879430894672157  1.0000
  C   C70       1.0  0.20718434072796862  0.14410626501531215  0.9120569108711315  1.0000
  C   C71       1.0  0.2928156596020987  0.6441062650123754  0.5879430892028513  1.0000
  C   C72       1.0  0.707184340606279  0.6441062650123754  0.9120569106245985  1.0000
  C   C73       1.0  0.15531622421093166  0.9597050567160885  0.3987950579908595  1.0000
  C   C74       1.0  0.8446837758243441  0.9597050567160885  0.1012049416224428  1.0000
  C   C75       1.0  0.655316224180421  0.4597050567190251  0.3987950582552239  1.0000
  C   C76       1.0  0.34468377594603355  0.4597050567190251  0.10120494186897581  1.0000
  C   C77       1.0  0.8446837757187914  0.04029494327803815  0.601204941730222  1.0000
  C   C78       1.0  0.155316224105379  0.04029494327803815  0.8987950580986387  1.0000
  C   C79       1.0  0.3446837758404808  0.5402949432751014  0.601204941976755  1.0000
  C   C80       1.0  0.6553162240748683  0.5402949432751014  0.898795058363003  1.0000
  C   C81       1.0  0.1372522177697013  0.13982579779222148  0.34320862564203314  1.0000
  C   C82       1.0  0.8627477819725458  0.13982579779222148  0.15679137448357738  1.0000
  C   C83       1.0  0.6372522176480118  0.6398257977892848  0.3432086253955001  1.0000
  C   C84       1.0  0.36274778209423536  0.6398257977892848  0.1567913747301104  1.0000
  C   C85       1.0  0.8627477822512004  0.8601742022019051  0.6567913745899456  1.0000
  C   C86       1.0  0.13725221804835613  0.8601742022019051  0.8432086257484016  1.0000
  C   C87       1.0  0.3627477822817113  0.3601742022048418  0.6567913743255813  1.0000
  C   C88       1.0  0.6372522179266665  0.3601742022048418  0.8432086255018685  1.0000
  C   C89       1.0  0.22933681052256188  0.6690630618532021  0.47265838878336536  1.0000
  C   C90       1.0  0.7706631895127137  0.6690630618532021  0.027341610829936913  1.0000
  C   C91       1.0  0.7293368104920511  0.16906306185613884  0.4726583890477297  1.0000
  C   C92       1.0  0.2706631892501959  0.16906306185613884  0.027341611077880742  1.0000
  C   C93       1.0  0.770663189407161  0.33093693814092445  0.527341610937716  1.0000
  C   C94       1.0  0.22933681041700923  0.33093693814092445  0.9726583888911446  1.0000
  C   C95       1.0  0.27066318952885066  0.8309369381379877  0.5273416111842492  1.0000
  C   C96       1.0  0.729336810770706  0.8309369381379877  0.9726583891540981  1.0000
  N   N1        1.0  0.16810003626438874  0.2204551886935167  0.30129030395001816  1.0000
  N   N2        1.0  0.8318999638620659  0.2204551886935167  0.19870969617418158  1.0000
  N   N3        1.0  0.6681000361426991  0.72045518869058  0.3012903037034851  1.0000
  N   N4        1.0  0.33189996359954793  0.72045518869058  0.1987096964221254  1.0000
  N   N5        1.0  0.8318999637565131  0.7795448113006098  0.6987096962819608  1.0000
  N   N6        1.0  0.16810003645186467  0.7795448113006098  0.8012903035454891  1.0000
  N   N7        1.0  0.3318999637870238  0.2795448113035466  0.6987096960175962  1.0000
  N   N8        1.0  0.668100036421354  0.2795448113035466  0.8012903038098534  1.0000
  O   O1        1.0  0.16026012803717404  0.5557103339566025  0.20077313141936842  1.0000
  O   O2        1.0  0.8397398720892805  0.5557103339566025  0.2992268687048313  1.0000
  O   O3        1.0  0.6602601280066634  0.05571033395953921  0.2007731316837328  1.0000
  O   O4        1.0  0.3397398721197912  0.05571033395953921  0.2992268684404669  1.0000
  O   O5        1.0  0.8397398718925491  0.4442896660375241  0.7992268683017131  1.0000
  O   O6        1.0  0.16026012793162137  0.4442896660375241  0.7007731315271476  1.0000
  O   O7        1.0  0.33973987201423855  0.9442896660345874  0.799226868548246  1.0000
  O   O8        1.0  0.6602601278099318  0.9442896660345874  0.7007731312806146  1.0000
  F   F1        1.0  0.16961170836367487  0.9335390795830109  0.10166683957684725  1.0000
  F   F2        1.0  0.8303882917627797  0.9335390795830109  0.39833316054735246  1.0000
  F   F3        1.0  0.6696117083331642  0.4335390795859475  0.10166683984121161  1.0000
  F   F4        1.0  0.3303882917932904  0.4335390795859475  0.3983331602829881  1.0000
  F   F5        1.0  0.830388291566048  0.0664609204111158  0.8983331601442343  1.0000
  F   F6        1.0  0.16961170825812222  0.0664609204111158  0.6016668396846264  1.0000
  F   F7        1.0  0.3303882916877377  0.5664609204081791  0.8983331603907672  1.0000
  F   F8        1.0  0.6696117081364326  0.5664609204081791  0.6016668394380934  1.0000
  F   F9        1.0  0.08881993761048217  0.2713348754562475  0.04062557546026981  1.0000
  F   F10       1.0  0.9111800624247935  0.2713348754562475  0.4593744241530325  1.0000
  F   F11       1.0  0.5888199375799714  0.7713348754533108  0.04062557572463418  1.0000
  F   F12       1.0  0.4111800625464831  0.7713348754533108  0.45937442439956555  1.0000
  F   F13       1.0  0.9111800623192409  0.7286651245378791  0.9593744242608118  1.0000
  F   F14       1.0  0.08881993750492949  0.7286651245378791  0.540625575568049  1.0000
  F   F15       1.0  0.4111800624409304  0.2286651245408158  0.9593744245073447  1.0000
  F   F16       1.0  0.5888199374744189  0.2286651245408158  0.5406255758324133  1.0000
  F   F17       1.0  0.9809393465123596  0.8522386281064183  0.17684563280336751  1.0000
  F   F18       1.0  0.019060653614094918  0.8522386281064183  0.3231543673208322  1.0000
  F   F19       1.0  0.4809393465428703  0.35223862810935497  0.17684563253900315  1.0000
  F   F20       1.0  0.5190606534924054  0.35223862810935497  0.3231543670742992  1.0000
  F   F21       1.0  0.019060653508542226  0.14776137188770833  0.8231543674286113  1.0000
  F   F22       1.0  0.9809393467910145  0.14776137188770833  0.6768456329097359  1.0000
  F   F23       1.0  0.5190606533868527  0.6477613718847717  0.8231543671820784  1.0000
  F   F24       1.0  0.48093934643731767  0.6477613718847717  0.6768456326467823  1.0000
  F   F25       1.0  0.06299042856730509  0.5122895299630378  0.23808161387800814  1.0000
  F   F26       1.0  0.9370095714679706  0.5122895299630378  0.2619183857352942  1.0000
  F   F27       1.0  0.5629904285367944  0.012289529965974443  0.2380816141423725  1.0000
  F   F28       1.0  0.4370095715896601  0.012289529965974443  0.26191838598182715  1.0000
  F   F29       1.0  0.937009571362418  0.48771047003108886  0.7619183858430733  1.0000
  F   F30       1.0  0.06299042846175244  0.48771047003108886  0.7380816139857874  1.0000
  F   F31       1.0  0.4370095714841074  0.9877104700281522  0.7619183860896063  1.0000
  F   F32       1.0  0.5629904284312418  0.9877104700281522  0.7380816142501517  1.0000
  Br  Br1       1.0  0.9744550563238241  0.29155630091482987  0.06307949237916745  1.0000
  Br  Br2       1.0  0.02554494341842303  0.29155630091482987  0.4369205077464431  1.0000
  Br  Br3       1.0  0.47445505635433477  0.7915563009118932  0.06307949211480306  1.0000
  Br  Br4       1.0  0.5255449437721198  0.7915563009118932  0.4369205080093966  1.0000
  Br  Br5       1.0  0.02554494369707782  0.7084436990792967  0.9369205078528114  1.0000
  Br  Br6       1.0  0.9744550565112999  0.7084436990792967  0.5630794919746384  1.0000
  Br  Br7       1.0  0.5255449435753883  0.20844369908223342  0.9369205076062784  1.0000
  Br  Br8       1.0  0.47445505624878204  0.20844369908223342  0.5630794922225822  1.0000
