data_image0
_chemical_formula_structural       H62C40N4O4P4Cl2
_chemical_formula_sum              "H62 C40 N4 O4 P4 Cl2"
_cell_length_a       11.448997970181454
_cell_length_b       9.206314941460779
_cell_length_c       12.234107778231834
_cell_angle_alpha    118.89084694713358
_cell_angle_beta     90.29204117080332
_cell_angle_gamma    100.58134758411681

_space_group_name_H-M_alt    "P 1"
_space_group_IT_number       1

loop_
  _space_group_symop_operation_xyz
  'x, y, z'

loop_
  _atom_site_type_symbol
  _atom_site_label
  _atom_site_symmetry_multiplicity
  _atom_site_fract_x
  _atom_site_fract_y
  _atom_site_fract_z
  _atom_site_occupancy
  H   H1        1.0  0.10426125990574886  0.9976056006992119  0.8457985962591712  1.0000
  H   H2        1.0  0.8957387395947286  0.002394399476974994  0.15420140378421204  1.0000
  H   H3        1.0  0.9505654198702727  0.9071680590132117  0.5792995617382078  1.0000
  H   H4        1.0  0.04943458050459196  0.09283194117223018  0.4207004382872231  1.0000
  H   H5        1.0  0.9873839094194411  0.12826759612466956  0.6502753183780128  1.0000
  H   H6        1.0  0.012616090081036271  0.8717324040515173  0.3497246816653705  1.0000
  H   H7        1.0  0.716767484984035  0.7988296673324629  0.575658188148636  1.0000
  H   H8        1.0  0.2832325153908299  0.201170332852979  0.424341811876795  1.0000
  H   H9        1.0  0.6257325537979231  0.7237709721304508  0.6642168362036854  1.0000
  H   H10       1.0  0.3742674465769416  0.27622902805499105  0.3357831638217455  1.0000
  H   H11       1.0  0.6586474650321023  0.9433117640652533  0.7109475997365441  1.0000
  H   H12       1.0  0.3413525351959522  0.05668823501298065  0.28905240028525647  1.0000
  H   H13       1.0  0.6965003827760085  0.7550321853474123  0.861799171644145  1.0000
  H   H14       1.0  0.3034996175988563  0.24496781483802962  0.13820082838128606  1.0000
  H   H15       1.0  0.8473521100630662  0.8744797585114082  0.9398388376248104  1.0000
  H   H16       1.0  0.15264789031179846  0.12552024167403372  0.060161162400620666  1.0000
  H   H17       1.0  0.7907382224709841  0.5741130413606659  0.6629420198277637  1.0000
  H   H18       1.0  0.20926177702949347  0.42588695881552113  0.33705798021561967  1.0000
  H   H19       1.0  0.9382188339189454  0.695872066234204  0.7464419158055231  1.0000
  H   H20       1.0  0.06178116645591923  0.304127933951238  0.2535580842199079  1.0000
  H   H21       1.0  0.7899600088292716  0.22288450414348554  0.7166953984125051  1.0000
  H   H22       1.0  0.21003999067120585  0.7771154960327014  0.2833046016308783  1.0000
  H   H23       1.0  0.7245644586612875  0.4941286282423854  0.8414263767657074  1.0000
  H   H24       1.0  0.2754355408391899  0.5058713719338014  0.1585736232776758  1.0000
  H   H25       1.0  0.7683613189679501  0.6541469271665785  0.07420761556589082  1.0000
  H   H26       1.0  0.23163868053252737  0.3458530730096085  0.9257923844774926  1.0000
  H   H27       1.0  0.8781036725818462  0.539874856355494  0.18260285235910095  1.0000
  H   H28       1.0  0.1218963277930186  0.46012514382994785  0.81739714766633  1.0000
  H   H29       1.0  0.9442758389517788  0.2689785130864059  0.05695712489334336  1.0000
  H   H30       1.0  0.05572416054869858  0.731021487089781  0.9430428751500399  1.0000
  H   H31       1.0  0.09546800473231565  0.6857859415231573  0.5422463962791461  1.0000
  H   H32       1.0  0.904531995642549  0.31421405866228463  0.45775360374628493  1.0000
  H   H33       1.0  0.11522023277205065  0.5618792917914444  0.6081162578497787  1.0000
  H   H34       1.0  0.8847797667284267  0.43812070838474276  0.39188374219360467  1.0000
  H   H35       1.0  0.4925550211438761  0.016208943411443202  0.771561241778919  1.0000
  H   H36       1.0  0.5074449792309885  0.9837910567739987  0.22843875824651205  1.0000
  H   H37       1.0  0.40033169665867163  0.16510360798412843  0.8020292837626951  1.0000
  H   H38       1.0  0.5996683037161931  0.8348963922013134  0.1979707162627358  1.0000
  H   H39       1.0  0.49930098535589285  0.12392395544870055  0.6838659956561682  1.0000
  H   H40       1.0  0.5006990148721617  0.8760760436295335  0.3161340043656323  1.0000
  H   H41       1.0  0.4472399617934028  0.8600369908442639  0.47467526993534737  1.0000
  H   H42       1.0  0.5527600385814619  0.13996300934117797  0.5253247300900836  1.0000
  H   H43       1.0  0.4506143474958911  0.7344865372602047  0.547539307869746  1.0000
  H   H44       1.0  0.5493856520045864  0.2655134629159821  0.45246069217363716  1.0000
  H   H45       1.0  0.3222469095219936  0.6957610936015245  0.44704871856450007  1.0000
  H   H46       1.0  0.6777530907060612  0.3042389054767096  0.5529512814573005  1.0000
  H   H47       1.0  0.21819376271456586  0.09692435482728824  0.6608753498412949  1.0000
  H   H48       1.0  0.7818062376602989  0.9030756453581537  0.3391246501841361  1.0000
  H   H49       1.0  0.30789222680433065  0.06645450355112906  0.5368753661690685  1.0000
  H   H50       1.0  0.6921077735705341  0.9335454966343129  0.46312463385636243  1.0000
  H   H51       1.0  0.18300792668170623  0.9053686146907538  0.5142444068838645  1.0000
  H   H52       1.0  0.8169920736931583  0.09463138549468814  0.48575559314156647  1.0000
  H   H53       1.0  0.31759465831702177  0.4901699515964423  0.577683704774617  1.0000
  H   H54       1.0  0.6824053420578429  0.5098300485889996  0.42231629525081404  1.0000
  H   H55       1.0  0.43637227410052654  0.3490613709839052  0.6528337783516024  1.0000
  H   H56       1.0  0.5636277262743381  0.6509386292015367  0.34716622167382855  1.0000
  H   H57       1.0  0.5251948800342678  0.4970226448134414  0.8755676833487119  1.0000
  H   H58       1.0  0.4748051203405968  0.5029773553720006  0.12443231667671907  1.0000
  H   H59       1.0  0.4971131099726189  0.7876258097458554  0.02221662617498703  1.0000
  H   H60       1.0  0.5028868895278584  0.21237419043033146  0.9777833738683962  1.0000
  H   H61       1.0  0.37492730547688585  0.9275288317340523  0.9478801798393939  1.0000
  H   H62       1.0  0.6250726940235916  0.07247116844213443  0.05211982020398946  1.0000
  C   C1        1.0  0.8046785241209471  0.8514339060839367  0.7519958226761555  1.0000
  C   C2        1.0  0.19532147625391771  0.1485660941015053  0.24800417734927557  1.0000
  C   C3        1.0  0.6953194057234572  0.8280132762030356  0.6705809925345518  1.0000
  C   C4        1.0  0.3046805946514074  0.17198672398240633  0.32941900749087916  1.0000
  C   C5        1.0  0.7886818206609972  0.8000003927126192  0.852435008085113  1.0000
  C   C6        1.0  0.21131817971386752  0.1999996074728227  0.14756499194031797  1.0000
  C   C7        1.0  0.8433735661112951  0.6940714992258394  0.7368150408161029  1.0000
  C   C8        1.0  0.15662643338918236  0.3059285009503475  0.26318495922728036  1.0000
  C   C9        1.0  0.8688161557228689  0.22706359695513226  0.8795014757213854  1.0000
  C   C10       1.0  0.1311838446519957  0.7729364032303097  0.12049852430404563  1.0000
  C   C11       1.0  0.8063007529854748  0.29031374114160835  0.8187973750386291  1.0000
  C   C12       1.0  0.1936992473893899  0.7096862590438336  0.1812026249868019  1.0000
  C   C13       1.0  0.7697279406920801  0.4429804630208649  0.8892509890332099  1.0000
  C   C14       1.0  0.23027205953597465  0.557019536057369  0.11074901098859065  1.0000
  C   C15       1.0  0.7948089247132696  0.5326862497446636  0.019917930269273153  1.0000
  C   C16       1.0  0.20519107566159503  0.4673137504407781  0.9800820697561579  1.0000
  C   C17       1.0  0.8567034155101707  0.4697852074176583  0.08074551066146038  1.0000
  C   C18       1.0  0.14329658399030684  0.5302147927585286  0.919254489381923  1.0000
  C   C19       1.0  0.8937495482840704  0.3173234467219261  0.010800564846761982  1.0000
  C   C20       1.0  0.1062504519439842  0.6826765523563081  0.9891994351750387  1.0000
  C   C21       1.0  0.3396786328282913  0.924971095992216  0.6293644025496544  1.0000
  C   C22       1.0  0.6603213666721861  0.07502890418397086  0.37063559749372893  1.0000
  C   C23       1.0  0.43871689137097  0.06568333988542273  0.7279761766371348  1.0000
  C   C24       1.0  0.5612831079826974  0.9343166591835561  0.272023823402618  1.0000
  C   C25       1.0  0.39275888382284674  0.7953266992118211  0.5185447867186129  1.0000
  C   C26       1.0  0.6072411156776307  0.2046733009643659  0.4814552133247704  1.0000
  C   C27       1.0  0.25668018314685  0.0023024006839945893  0.5830705441796066  1.0000
  C   C28       1.0  0.7433198170812045  0.9976975983942394  0.416929455842194  1.0000
  C   C29       1.0  0.340372911784283  0.7188499261106697  0.7577100814592669  1.0000
  C   C30       1.0  0.6596270885905817  0.2811500740747721  0.24228991856616394  1.0000
  C   C31       1.0  0.358316291813577  0.5559335804899201  0.6745276420002697  1.0000
  C   C32       1.0  0.6416837084144776  0.4440664185883138  0.32547235802153085  1.0000
  C   C33       1.0  0.4248005653121178  0.47687940624551695  0.7170665265389334  1.0000
  C   C34       1.0  0.575199435062747  0.523120593939925  0.2829334734864975  1.0000
  C   C35       1.0  0.4744971812642719  0.5599713860119213  0.842127168191367  1.0000
  C   C36       1.0  0.5255028182362057  0.4400286141642657  0.1578728318520164  1.0000
  C   C37       1.0  0.45846026369243104  0.7232864476102939  0.9247304657362992  1.0000
  C   C38       1.0  0.5415397358080464  0.2767135525658929  0.07526953430708405  1.0000
  C   C39       1.0  0.391149580468394  0.8023986789126828  0.8831137045837761  1.0000
  C   C40       1.0  0.6088504190320835  0.19760132126350421  0.11688629545960721  1.0000
  N   N1        1.0  0.9508967652080001  0.02303278471259461  0.65805487169367  1.0000
  N   N2        1.0  0.04910323516686458  0.9769672154728475  0.34194512833176105  1.0000
  N   N3        1.0  0.15017766151455078  0.6675898481875004  0.5999083245392857  1.0000
  N   N4        1.0  0.8498223379859265  0.33241015198868645  0.40009167550409763  1.0000
  O   O1        1.0  0.0206838959510128  0.038417442645064526  0.8777200596661563  1.0000
  O   O2        1.0  0.9793161034026546  0.9615825564239145  0.1222799403735965  1.0000
  O   O3        1.0  0.21184396064129118  0.9617193383113973  0.8248689799702593  1.0000
  O   O4        1.0  0.7881560397335735  0.0382806618740448  0.1751310200551718  1.0000
  P   P1        1.0  0.919865418998753  0.033888827664332696  0.7901565087792702  1.0000
  P   P2        1.0  0.08013458137611168  0.9661111725211092  0.20984349124616072  1.0000
  P   P3        1.0  0.2502633728650535  0.8223013453384771  0.7076867610384182  1.0000
  P   P4        1.0  0.7497366275098112  0.17769865484696493  0.29231323898701284  1.0000
  Cl  Cl1       1.0  0.03781561074439145  0.3185535648997976  0.5904569669468339  1.0000
  Cl  Cl2       1.0  0.9621843896304734  0.6814464352856443  0.409543033078597  1.0000
