data_image0
_chemical_formula_structural       H26C26N6O10
_chemical_formula_sum              "H26 C26 N6 O10"
_cell_length_a       3.6748609009483872
_cell_length_b       10.854551860145563
_cell_length_c       15.863410051537437
_cell_angle_alpha    101.82968916738767
_cell_angle_beta     96.46488887002641
_cell_angle_gamma    90.77436139284323

_space_group_name_H-M_alt    "P 1"
_space_group_IT_number       1

loop_
  _space_group_symop_operation_xyz
  'x, y, z'

loop_
  _atom_site_type_symbol
  _atom_site_label
  _atom_site_symmetry_multiplicity
  _atom_site_fract_x
  _atom_site_fract_y
  _atom_site_fract_z
  _atom_site_occupancy
  H   H1        1.0  0.7359698627819597  0.300452595396169  0.4402408132071904  1.0000
  H   H2        1.0  0.26403013911342604  0.6995474038658748  0.5597591865418103  1.0000
  H   H3        1.0  0.11902858978707413  0.9990034127936825  0.3103912843926208  1.0000
  H   H4        1.0  0.8809714094815322  0.0009965874131644176  0.6896087154219214  1.0000
  H   H5        1.0  0.8578230641345357  0.4214176268671869  0.1032166573405426  1.0000
  H   H6        1.0  0.14217693515222002  0.5785823733434503  0.8967833431053679  1.0000
  H   H7        1.0  0.3318870549968836  0.9568091087652006  0.09089352804282734  1.0000
  H   H8        1.0  0.6681129442898722  0.04319089144543663  0.9091064724030832  1.0000
  H   H9        1.0  0.21355449760487233  0.1285706616172506  0.009969313713391893  1.0000
  H   H10       1.0  0.7864455016818833  0.8714293385933868  0.9900306867325186  1.0000
  H   H11       1.0  0.8199349837419668  0.35828695529989013  0.23304964768916767  1.0000
  H   H12       1.0  0.18006501541519865  0.6417130439650379  0.7669503519928906  1.0000
  H   H13       1.0  0.5916935649446013  0.1777462526081454  0.7994546924609115  1.0000
  H   H14       1.0  0.40830643421256435  0.8222537466567827  0.2005453072211468  1.0000
  H   H15       1.0  0.18654687436588996  0.32458025602999363  0.9242772509092118  1.0000
  H   H16       1.0  0.813453124809425  0.6754197432387249  0.07572274940421464  1.0000
  H   H17       1.0  0.5958098519658224  0.28565569710949945  0.9600997011753493  1.0000
  H   H18       1.0  0.4041901473209334  0.7143443031011378  0.03990029927056124  1.0000
  H   H19       1.0  0.7865878855874354  0.5062062533144372  0.5611282409488615  1.0000
  H   H20       1.0  0.21341211368117088  0.4937937468924097  0.4388717588656809  1.0000
  H   H21       1.0  0.6391685500077267  0.5346892970574574  0.7130198290603512  1.0000
  H   H22       1.0  0.36083145199910005  0.46531070314650524  0.28698017082113364  1.0000
  H   H23       1.0  0.3421275204069898  0.13656765404012924  0.6592230209739077  1.0000
  H   H24       1.0  0.6578724816179862  0.8634323461676238  0.34077697953894537  1.0000
  H   H25       1.0  0.49292278786753807  0.1261278228399401  0.5078166503402647  1.0000
  H   H26       1.0  0.5070772140278478  0.8738721764221037  0.4921833494087361  1.0000
  C   C1        1.0  0.9174708117115894  0.18899298072987986  0.3383059057299129  1.0000
  C   C2        1.0  0.0825291874637254  0.8110070185388386  0.6616940945835135  1.0000
  C   C3        1.0  0.996926788765693  0.17440431770603423  0.24818174136016002  1.0000
  C   C4        1.0  0.003073213241133857  0.8255956824979285  0.7518182585213249  1.0000
  C   C5        1.0  0.13585214603813794  0.059653990058748184  0.20703619460727046  1.0000
  C   C6        1.0  0.8641478532304684  0.9403460101480988  0.7929638052072717  1.0000
  C   C7        1.0  0.2154810572863778  0.04415801941169199  0.12150418056777153  1.0000
  C   C8        1.0  0.7845189419822286  0.955841980795155  0.8784958192467708  1.0000
  C   C9        1.0  0.15272797314502626  0.1402702769214681  0.07670694594946927  1.0000
  C   C10       1.0  0.8472720261417296  0.8597297232891692  0.9232930544964413  1.0000
  C   C11       1.0  0.009612882994742502  0.25409517597334164  0.11637412982590424  1.0000
  C   C12       1.0  0.9903871162738639  0.7459048242335053  0.8836258699886381  1.0000
  C   C13       1.0  0.9345742260181287  0.27117076060981593  0.20190271271916854  1.0000
  C   C14       1.0  0.06542577325047773  0.7288292395970309  0.7980972870953736  1.0000
  C   C15       1.0  0.6854902983212795  0.4266486999305119  0.5852386263211471  1.0000
  C   C16       1.0  0.31450970085403546  0.5733512993382066  0.41476137399227925  1.0000
  C   C17       1.0  0.6050893041188121  0.44230918945526165  0.6700739697502854  1.0000
  C   C18       1.0  0.39491069516794364  0.5576908107553756  0.3299260306956252  1.0000
  C   C19       1.0  0.48566621637522617  0.33708458207605346  0.699211700005419  1.0000
  C   C20       1.0  0.5143337828933802  0.6629154181307935  0.30078829980912336  1.0000
  C   C21       1.0  0.4429296820242524  0.22074062250435125  0.6406756620038756  1.0000
  C   C22       1.0  0.5570703199825743  0.7792593776996114  0.3593243378776092  1.0000
  C   C23       1.0  0.5253791325435978  0.21369876219149114  0.556352776723199  1.0000
  C   C24       1.0  0.4746208694632289  0.7863012380124715  0.4436472231582858  1.0000
  C   C25       1.0  0.4017928049008243  0.35464405697945633  0.7907934017535158  1.0000
  C   C26       1.0  0.5982071943677821  0.6453559432273906  0.20920659806102648  1.0000
  N   N1        1.0  0.646026988129154  0.31466287609056315  0.5294544386232172  1.0000
  N   N2        1.0  0.35397301115760155  0.6853371241200741  0.47054556182269336  1.0000
  N   N3        1.0  0.4834520460276223  0.25938236199868947  0.8307146368892395  1.0000
  N   N4        1.0  0.5165479559792043  0.7406176382052732  0.16928536299224528  1.0000
  N   N5        1.0  0.37806477808097977  0.2573980728373843  0.912519541548341  1.0000
  N   N6        1.0  0.6219352211876266  0.7426019273694626  0.08748045826620135  1.0000
  O   O1        1.0  0.797564721687587  0.29863451244695505  0.3744344529171409  1.0000
  O   O2        1.0  0.2024352774695787  0.7013654868179731  0.6255655467649173  1.0000
  O   O3        1.0  0.9626996560266434  0.1001741961623067  0.37871995516161744  1.0000
  O   O4        1.0  0.037300343241963047  0.8998258040445402  0.6212800446529247  1.0000
  O   O5        1.0  0.1953734095491303  0.9638663948140201  0.2500799360654509  1.0000
  O   O6        1.0  0.8046265897194761  0.03613360539282696  0.7499200637490915  1.0000
  O   O7        1.0  0.9458962185753816  0.34402835838273044  0.06726206934256261  1.0000
  O   O8        1.0  0.05410378069322464  0.6559716418241165  0.9327379304719797  1.0000
  O   O9        1.0  0.2581282470516738  0.4531153343959034  0.826210610309634  1.0000
  O   O10       1.0  0.7418717522350818  0.5468846658147337  0.17378939013627645  1.0000
