data_image0
_chemical_formula_structural       H88C104N16O24F8
_chemical_formula_sum              "H88 C104 N16 O24 F8"
_cell_length_a       22.741821803662262
_cell_length_b       5.177913285978435
_cell_length_c       19.90114629033081
_cell_angle_alpha    90.0
_cell_angle_beta     100.70752398286643
_cell_angle_gamma    90.0

_space_group_name_H-M_alt    "P 1"
_space_group_IT_number       1

loop_
  _space_group_symop_operation_xyz
  'x, y, z'

loop_
  _atom_site_type_symbol
  _atom_site_label
  _atom_site_symmetry_multiplicity
  _atom_site_fract_x
  _atom_site_fract_y
  _atom_site_fract_z
  _atom_site_occupancy
  H   H1        1.0  0.13491473957796557  0.36292860583216546  0.22846818428693155  1.0000
  H   H2        1.0  0.8650852606771262  0.36292860583216546  0.27153181613698363  1.0000
  H   H3        1.0  0.6349147392672899  0.8629286052548639  0.22846818400151286  1.0000
  H   H4        1.0  0.36508526053844126  0.8629286052548639  0.2715318158265984  1.0000
  H   H5        1.0  0.8650852606548479  0.6370713949445114  0.7715318159401283  1.0000
  H   H6        1.0  0.1349147395556874  0.6370713949445114  0.7284681840900763  1.0000
  H   H7        1.0  0.3650852605180171  0.13707139359053297  0.771531816132616  1.0000
  H   H8        1.0  0.6349147392468657  0.13707139359053297  0.7284681843075305  1.0000
  H   H9        1.0  0.114622672673271  0.8732439073949434  0.4218056016680352  1.0000
  H   H10       1.0  0.8853773275799666  0.8732439073949434  0.07819439825300702  1.0000
  H   H11       1.0  0.6146226728119559  0.37324390797224505  0.42180560197842043  1.0000
  H   H12       1.0  0.38537732744313574  0.37324390797224505  0.07819439844549472  1.0000
  H   H13       1.0  0.8853773275595425  0.12675609145045336  0.5781943985590248  1.0000
  H   H14       1.0  0.11462267265099284  0.12675609145045336  0.9218056014711801  1.0000
  H   H15       1.0  0.3853773274208576  0.6267560908731518  0.5781943982486394  1.0000
  H   H16       1.0  0.6146226727896777  0.6267560908731518  0.9218056017815651  1.0000
  H   H17       1.0  0.262773316150447  0.3425309506056851  0.44655535184267936  1.0000
  H   H18       1.0  0.737226683655284  0.3425309506056851  0.05344464798543186  1.0000
  H   H19       1.0  0.762773316289132  0.8425309500283834  0.44655535215306463  1.0000
  H   H20       1.0  0.2372266835165991  0.8425309500283834  0.053444647675046635  1.0000
  H   H21       1.0  0.7372266836330059  0.6574690501709917  0.5534446477885766  1.0000
  H   H22       1.0  0.26277331613002297  0.6574690501709917  0.946555352148697  1.0000
  H   H23       1.0  0.23722668394368152  0.15746905074829323  0.5534446480739953  1.0000
  H   H24       1.0  0.7627733162668539  0.15746905074829323  0.9465553519562093  1.0000
  H   H25       1.0  0.29604770431073624  0.5348369385596415  0.34396805335485126  1.0000
  H   H26       1.0  0.7039522959425013  0.5348369385596415  0.15603194656619096  1.0000
  H   H27       1.0  0.7960477040019147  0.034836937205663214  0.34396805357230553  1.0000
  H   H28       1.0  0.2039522958056705  0.034836937205663214  0.15603194675867868  1.0000
  H   H29       1.0  0.7039522959202232  0.46516306221703524  0.6560319463693357  1.0000
  H   H30       1.0  0.29604770429031213  0.46516306221703524  0.8439680536608689  1.0000
  H   H31       1.0  0.20395229578339236  0.9651630616397336  0.6560319465618234  1.0000
  H   H32       1.0  0.7960477039796365  0.9651630616397336  0.8439680533754502  1.0000
  H   H33       1.0  0.23839785167988353  0.8939424270650633  0.28098525777469346  1.0000
  H   H34       1.0  0.7616021485733543  0.8939424270650633  0.2190147421463488  1.0000
  H   H35       1.0  0.738397851371062  0.393942427642365  0.28098525799214763  1.0000
  H   H36       1.0  0.2616021484365233  0.393942427642365  0.2190147423388365  1.0000
  H   H37       1.0  0.761602148551076  0.10605757371161337  0.7190147419494934  1.0000
  H   H38       1.0  0.23839785165945937  0.10605757371161337  0.7809852580807111  1.0000
  H   H39       1.0  0.26160214841424506  0.6060575731343117  0.7190147421419812  1.0000
  H   H40       1.0  0.7383978513487837  0.6060575731343117  0.7809852577952924  1.0000
  H   H41       1.0  0.965548274808287  0.4810374802422625  0.043903504935691486  1.0000
  H   H42       1.0  0.03445172499929814  0.4810374802422625  0.4560964953952927  1.0000
  H   H43       1.0  0.46554827466960214  0.9810374815962408  0.04390350462530626  1.0000
  H   H44       1.0  0.534451725136129  0.9810374815962408  0.45609649520280493  1.0000
  H   H45       1.0  0.034451724977019975  0.5189625186031342  0.9560964951984375  1.0000
  H   H46       1.0  0.9655482747860089  0.5189625186031342  0.5439035047388363  1.0000
  H   H47       1.0  0.5344517251157049  0.01896251918043591  0.9560964955088226  1.0000
  H   H48       1.0  0.46554827464732385  0.01896251918043591  0.5439035044284509  1.0000
  H   H49       1.0  0.9571963948136547  0.26768666322655227  0.11171524072297075  1.0000
  H   H50       1.0  0.042803604992076257  0.26768666322655227  0.3882847591051405  1.0000
  H   H51       1.0  0.45719639467682394  0.7676866645805306  0.11171524091545848  1.0000
  H   H52       1.0  0.5428036051289071  0.7676866645805306  0.38828475891265274  1.0000
  H   H53       1.0  0.042803604969798084  0.7323133356188445  0.8882847589082852  1.0000
  H   H54       1.0  0.9571963947932306  0.7323133356188445  0.6117152410289884  1.0000
  H   H55       1.0  0.542803605108483  0.23231333619614614  0.8882847592186704  1.0000
  H   H56       1.0  0.4571963946545458  0.23231333619614614  0.6117152407186033  1.0000
  H   H57       1.0  0.15718920475493633  0.4994120869120267  0.11294755320869777  1.0000
  H   H58       1.0  0.8428107950507947  0.4994120869120267  0.38705244661941346  1.0000
  H   H59       1.0  0.6571892048936213  0.9994120863347252  0.112947553519083  1.0000
  H   H60       1.0  0.3428107949139639  0.9994120863347252  0.3870524468119012  1.0000
  H   H61       1.0  0.8428107950285165  0.5005879138646501  0.8870524464225582  1.0000
  H   H62       1.0  0.15718920473451223  0.5005879138646501  0.6129475535147154  1.0000
  H   H63       1.0  0.34281079489168576  0.0005879125106717128  0.8870524466150459  1.0000
  H   H64       1.0  0.657189204871343  0.0005879125106717128  0.6129475533222277  1.0000
  H   H65       1.0  0.11100910832666104  0.8660263261153957  0.03731816457145868  1.0000
  H   H66       1.0  0.888990891480924  0.8660263261153957  0.4626818357595255  1.0000
  H   H67       1.0  0.611009108463492  0.3660263266926972  0.03731816437897096  1.0000
  H   H68       1.0  0.3889908913422392  0.3660263266926972  0.46268183544914027  1.0000
  H   H69       1.0  0.888990891458646  0.13397367466128113  0.9626818355626703  1.0000
  H   H70       1.0  0.11100910875188941  0.13397367466128113  0.5373181644675343  1.0000
  H   H71       1.0  0.38899089132181514  0.6339736740839795  0.9626818357551579  1.0000
  H   H72       1.0  0.6110091084412137  0.6339736740839795  0.5373181641821156  1.0000
  H   H73       1.0  0.9997662241469102  0.022445028253894172  0.18626937179901704  1.0000
  H   H74       1.0  0.00023377565882083388  0.022445028253894172  0.3137306280290942  1.0000
  H   H75       1.0  0.49976622445758595  0.5224450296078725  0.18626937208443575  1.0000
  H   H76       1.0  0.5002337757975058  0.5224450296078725  0.31373062833947946  1.0000
  H   H77       1.0  0.00023377563654266147  0.9775549705915026  0.8137306278322389  1.0000
  H   H78       1.0  0.9997662245739927  0.9775549705915026  0.6862693721979657  1.0000
  H   H79       1.0  0.5002337757752277  0.47755497116880424  0.8137306281426242  1.0000
  H   H80       1.0  0.49976622443530777  0.47755497116880424  0.6862693718875804  1.0000
  H   H81       1.0  0.05163690021879893  0.6529497740248716  0.2558357667708859  1.0000
  H   H82       1.0  0.9483630995887864  0.6529497740248716  0.24416423356009836  1.0000
  H   H83       1.0  0.5516369003556298  0.15294977460217327  0.2558357665783981  1.0000
  H   H84       1.0  0.44836309989760786  0.15294977460217327  0.2441642333426441  1.0000
  H   H85       1.0  0.9483630995665081  0.3470502267518051  0.744164233363243  1.0000
  H   H86       1.0  0.05163690019652076  0.3470502267518051  0.7558357665740305  1.0000
  H   H87       1.0  0.44836309987718376  0.8470502261745035  0.7441642336486618  1.0000
  H   H88       1.0  0.5516369003333516  0.8470502261745035  0.7558357663815428  1.0000
  C   C1        1.0  0.17334367114667407  0.9086766618400252  0.3472818638931742  1.0000
  C   C2        1.0  0.8266563286590569  0.9086766618400252  0.152718135934937  1.0000
  C   C3        1.0  0.6733436712835049  0.40867666048604684  0.3472818637006865  1.0000
  C   C4        1.0  0.3266563289697327  0.40867666048604684  0.1527181362203557  1.0000
  C   C5        1.0  0.8266563286386329  0.0913233389366516  0.6527181362409548  1.0000
  C   C6        1.0  0.1733436711243959  0.0913233389366516  0.847281863696319  1.0000
  C   C7        1.0  0.3266563289474545  0.59132333835935  0.6527181360235004  1.0000
  C   C8        1.0  0.6733436712630808  0.59132333835935  0.8472818640067041  1.0000
  C   C9        1.0  0.1543891113037923  0.8022623131308462  0.40450519398194074  1.0000
  C   C10       1.0  0.8456108885037927  0.8022623131308462  0.09549480634904343  1.0000
  C   C11       1.0  0.6543891114406232  0.30226231177686785  0.404505193789453  1.0000
  C   C12       1.0  0.3456108883651079  0.30226231177686785  0.0954948060386582  1.0000
  C   C13       1.0  0.8456108884815148  0.19773768764583055  0.5954948061521881  1.0000
  C   C14       1.0  0.15438911172902064  0.19773768764583055  0.9045051938780165  1.0000
  C   C15       1.0  0.34561088834468384  0.6977376870685289  0.5954948063446759  1.0000
  C   C16       1.0  0.654389111418345  0.6977376870685289  0.9045051935925977  1.0000
  C   C17       1.0  0.1878338496892474  0.6013442690189091  0.4382875327807904  1.0000
  C   C18       1.0  0.8121661505658444  0.6013442690189091  0.06171246764312481  1.0000
  C   C19       1.0  0.6878338493785717  0.10134426959621073  0.43828753249537167  1.0000
  C   C20       1.0  0.31216615042715934  0.10134426959621073  0.061712467332739586  1.0000
  C   C21       1.0  0.8121661505435661  0.3986557298264877  0.5617124674462696  1.0000
  C   C22       1.0  0.18783384966696925  0.3986557298264877  0.9382875325839352  1.0000
  C   C23       1.0  0.31216615040673523  0.8986557311804659  0.5617124676387573  1.0000
  C   C24       1.0  0.6878338498038001  0.8986557311804659  0.9382875323914475  1.0000
  C   C25       1.0  0.23863909749980897  0.5019024801047669  0.41828840765664355  1.0000
  C   C26       1.0  0.7613609023059221  0.5019024801047669  0.0817115921714677  1.0000
  C   C27       1.0  0.7386390976384939  0.0019024787507886099  0.41828840796702876  1.0000
  C   C28       1.0  0.26136090261474376  0.0019024787507886099  0.08171159195401342  1.0000
  C   C29       1.0  0.7613609027311506  0.4980975206719098  0.5817115920675433  1.0000
  C   C30       1.0  0.23863909747938486  0.4980975206719098  0.9182884079626614  1.0000
  C   C31       1.0  0.26136090259431966  0.9980975200946083  0.5817115922600311  1.0000
  C   C32       1.0  0.7386390976162157  0.9980975200946083  0.9182884077701734  1.0000
  C   C33       1.0  0.256744037910737  0.6099843943993686  0.3612561086645708  1.0000
  C   C34       1.0  0.7432559618949943  0.6099843943993686  0.1387438911635404  1.0000
  C   C35       1.0  0.7567440380475678  0.10998439304539016  0.36125610847208306  1.0000
  C   C36       1.0  0.24325596220566978  0.10998439304539016  0.1387438914489591  1.0000
  C   C37       1.0  0.74325596187457  0.39001560637730825  0.6387438914695581  1.0000
  C   C38       1.0  0.2567440378884588  0.39001560637730825  0.8612561084677156  1.0000
  C   C39       1.0  0.2432559621833916  0.8900156058000066  0.6387438912521038  1.0000
  C   C40       1.0  0.7567440380271437  0.8900156058000066  0.8612561087781007  1.0000
  C   C41       1.0  0.22443686432349785  0.8119313568623384  0.325844561332347  1.0000
  C   C42       1.0  0.7755631354840875  0.8119313568623384  0.17415543899863725  1.0000
  C   C43       1.0  0.7244368644603286  0.31193135743963996  0.32584456113985927  1.0000
  C   C44       1.0  0.2755631357929089  0.31193135743963996  0.17415543878118298  1.0000
  C   C45       1.0  0.7755631354618091  0.18806864391433836  0.674155438801782  1.0000
  C   C46       1.0  0.22443686430121962  0.18806864391433836  0.8258445611354918  1.0000
  C   C47       1.0  0.2755631357724848  0.6880686433370368  0.6741554390872007  1.0000
  C   C48       1.0  0.7244368644380504  0.6880686433370368  0.825844560943004  1.0000
  C   C49       1.0  0.13836024805913155  0.12267211614378616  0.3084719959085843  1.0000
  C   C50       1.0  0.8616397517465996  0.12267211614378616  0.19152800391952696  1.0000
  C   C51       1.0  0.6383602481978166  0.6226721155664846  0.30847199621896954  1.0000
  C   C52       1.0  0.3616397520572752  0.6226721155664846  0.19152800420494565  1.0000
  C   C53       1.0  0.861639752171828  0.8773278846328907  0.6915280038156025  1.0000
  C   C54       1.0  0.13836024803870745  0.8773278846328907  0.8084719962146019  1.0000
  C   C55       1.0  0.3616397520349971  0.37732788327891226  0.6915280040080903  1.0000
  C   C56       1.0  0.6383602481755384  0.37732788327891226  0.8084719960221143  1.0000
  C   C57       1.0  0.12245248300429479  0.6220953561973991  0.12698103689430346  1.0000
  C   C58       1.0  0.877547517248943  0.6220953561973991  0.37301896302673876  1.0000
  C   C59       1.0  0.6224524826936192  0.1220953548434208  0.12698103660888477  1.0000
  C   C60       1.0  0.37754751711211193  0.1220953548434208  0.37301896321922645  1.0000
  C   C61       1.0  0.8775475172285188  0.37790464457927764  0.8730189633327564  1.0000
  C   C62       1.0  0.12245248298201662  0.37790464457927764  0.6269810366974482  1.0000
  C   C63       1.0  0.3775475170898338  0.8779046440019761  0.8730189630223711  1.0000
  C   C64       1.0  0.6224524826731951  0.8779046440019761  0.6269810369149025  1.0000
  C   C65       1.0  0.09682406159450933  0.8227730254843327  0.0853554840275764  1.0000
  C   C66       1.0  0.9031759382112218  0.8227730254843327  0.4146445158005349  1.0000
  C   C67       1.0  0.5968240617313402  0.3227730260616343  0.08535548383508865  1.0000
  C   C68       1.0  0.4031759380743909  0.3227730260616343  0.41464451599302254  1.0000
  C   C69       1.0  0.9031759381907977  0.1772269733610641  0.9146445161065526  1.0000
  C   C70       1.0  0.09682406157223117  0.1772269733610641  0.5853554838307211  1.0000
  C   C71       1.0  0.40317593849961925  0.6772269747150425  0.9146445158890983  1.0000
  C   C72       1.0  0.5968240617109161  0.6772269747150425  0.5853554841411063  1.0000
  C   C73       1.0  0.0518220516028351  0.9710394443289524  0.10573400698615729  1.0000
  C   C74       1.0  0.94817794820475  0.9710394443289524  0.3942659933448269  1.0000
  C   C75       1.0  0.551822051739666  0.47103944297497413  0.10573400679366955  1.0000
  C   C76       1.0  0.44817794851357157  0.47103944297497413  0.39426599312737265  1.0000
  C   C77       1.0  0.948177948182472  0.028960556447724287  0.8942659931479717  1.0000
  C   C78       1.0  0.05182205158055694  0.028960556447724287  0.605734006789302  1.0000
  C   C79       1.0  0.44817794849314757  0.5289605558704227  0.8942659934333902  1.0000
  C   C80       1.0  0.5518220517192419  0.5289605558704227  0.6057340070996872  1.0000
  C   C81       1.0  0.0343282654742046  0.9118002483326374  0.16782227152268497  1.0000
  C   C82       1.0  0.9656717347808872  0.9118002483326374  0.33217772890123015  1.0000
  C   C83       1.0  0.5343282651635289  0.41180024890993905  0.1678222712372663  1.0000
  C   C84       1.0  0.46567173464220213  0.41180024890993905  0.33217772859084493  1.0000
  C   C85       1.0  0.965671734758609  0.0881997524440393  0.8321777287043748  1.0000
  C   C86       1.0  0.03432826545192643  0.0881997524440393  0.6678222713258297  1.0000
  C   C87       1.0  0.465671734619924  0.5881997518667377  0.8321777283939896  1.0000
  C   C88       1.0  0.5343282651431048  0.5881997518667377  0.6678222715432839  1.0000
  C   C89       1.0  0.06251652581075615  0.708298943501325  0.2066757710427767  1.0000
  C   C90       1.0  0.9374834744443356  0.708298943501325  0.29332422938113845  1.0000
  C   C91       1.0  0.5625165255000805  0.20829894407862662  0.20667577075735802  1.0000
  C   C92       1.0  0.4374834743056506  0.20829894407862662  0.29332422907075323  1.0000
  C   C93       1.0  0.9374834744220574  0.29170105727535167  0.7933242291842831  1.0000
  C   C94       1.0  0.06251652578847798  0.29170105727535167  0.7066757708459215  1.0000
  C   C95       1.0  0.4374834742833725  0.7917010566980501  0.793324228873898  1.0000
  C   C96       1.0  0.5625165254796564  0.7917010566980501  0.7066757710633758  1.0000
  C   C97       1.0  0.026831567159820637  0.19158217320600596  0.05994092331233412  1.0000
  C   C98       1.0  0.9731684326459105  0.19158217320600596  0.4400590765157771  1.0000
  C   C99       1.0  0.5268315672985056  0.6915821726287044  0.05994092362271934  1.0000
  C   C100      1.0  0.47316843250907953  0.6915821726287044  0.44005907670826483  1.0000
  C   C101      1.0  0.9731684326236324  0.8084178275706708  0.9400590763189219  1.0000
  C   C102      1.0  0.026831567139396533  0.8084178275706708  0.5599409236183518  1.0000
  C   C103      1.0  0.4731684324868014  0.30841782814797236  0.9400590765114095  1.0000
  C   C104      1.0  0.5268315672762275  0.30841782814797236  0.559940923425864  1.0000
  N   N1        1.0  0.10560379920919627  0.5677695565047444  0.18651447259592732  1.0000
  N   N2        1.0  0.8943962005983889  0.5677695565047444  0.3134855277350569  1.0000
  N   N3        1.0  0.6056037993460271  0.06776955708204602  0.1865144724034396  1.0000
  N   N4        1.0  0.39439620045970397  0.06776955708204602  0.3134855274246717  1.0000
  N   N5        1.0  0.8943962005761107  0.4322304442719323  0.8134855275382017  1.0000
  N   N6        1.0  0.1056037991869181  0.4322304442719323  0.686514472399072  1.0000
  N   N7        1.0  0.3943962008867864  0.9322304436946308  0.8134855278236202  1.0000
  N   N8        1.0  0.605603799323749  0.9322304436946308  0.6865144722065842  1.0000
  N   N9        1.0  0.9804183805552966  0.32375409695244206  0.07470488635252986  1.0000
  N   N10       1.0  0.019581619697941036  0.32375409695244206  0.4252951135685124  1.0000
  N   N11       1.0  0.48041838041846574  0.8237540963751405  0.0747048865450176  1.0000
  N   N12       1.0  0.5195816193872654  0.8237540963751405  0.42529511328309366  1.0000
  N   N13       1.0  0.019581619675662864  0.6762459038242348  0.9252951133716569  1.0000
  N   N14       1.0  0.9804183805348725  0.6762459038242348  0.5747048866585477  1.0000
  N   N15       1.0  0.5195816193668413  0.17624590247025637  0.9252951135891112  1.0000
  N   N16       1.0  0.4804183803961875  0.17624590247025637  0.5747048863481623  1.0000
  O   O1        1.0  0.16134123441013504  0.2053892101437616  0.2565379147117728  1.0000
  O   O2        1.0  0.838658765395596  0.2053892101437616  0.2434620851163385  1.0000
  O   O3        1.0  0.66134123454882  0.70538920956646  0.256537915022158  1.0000
  O   O4        1.0  0.33865876525876515  0.70538920956646  0.2434620853088262  1.0000
  O   O5        1.0  0.8386587653751719  0.7946107906329153  0.7434620854223561  1.0000
  O   O6        1.0  0.16134123438785689  0.7946107906329153  0.7565379145149175  1.0000
  O   O7        1.0  0.338658765236487  0.2946107892789368  0.743462085111971  1.0000
  O   O8        1.0  0.6613412345265418  0.2946107892789368  0.7565379148253026  1.0000
  O   O9        1.0  0.09153696297535774  0.21072931309119344  0.3236970327655181  1.0000
  O   O10       1.0  0.9084630372778799  0.21072931309119344  0.1763029671555241  1.0000
  O   O11       1.0  0.5915369626665361  0.7107293125138918  0.32369703298297237  1.0000
  O   O12       1.0  0.40846303713919496  0.7107293125138918  0.17630296684513888  1.0000
  O   O13       1.0  0.9084630372556016  0.7892706876854833  0.6763029669586688  1.0000
  O   O14       1.0  0.09153696295493363  0.7892706876854833  0.8236970330715359  1.0000
  O   O15       1.0  0.40846303711877086  0.28927068826278485  0.6763029671511566  1.0000
  O   O16       1.0  0.5915369630917645  0.28927068826278485  0.8236970328790482  1.0000
  O   O17       1.0  0.05177589159885341  0.24516594618098575  0.010430106566302812  1.0000
  O   O18       1.0  0.9482241082087317  0.24516594618098575  0.48956989376468135  1.0000
  O   O19       1.0  0.5517758917356843  0.7451659456036842  0.010430106373815081  1.0000
  O   O20       1.0  0.4482241080700468  0.7451659456036842  0.48956989345429613  1.0000
  O   O21       1.0  0.9482241081864536  0.7548340545956911  0.9895698935678261  1.0000
  O   O22       1.0  0.051775891576575236  0.7548340545956911  0.5104301063694475  1.0000
  O   O23       1.0  0.4482241084971293  0.2548340532417127  0.9895698938532449  1.0000
  O   O24       1.0  0.5517758917134061  0.2548340532417127  0.5104301061769597  1.0000
  F   F1        1.0  0.17020599162695096  0.4915903549201695  0.49394413264097425  1.0000
  F   F2        1.0  0.8297940086262867  0.4915903549201695  0.006055867280067988  1.0000
  F   F3        1.0  0.6702059913162753  0.991590354342868  0.4939441323555555  1.0000
  F   F4        1.0  0.32979400848945584  0.991590354342868  0.006055867472555703  1.0000
  F   F5        1.0  0.8297940086058626  0.5084096458565073  0.5060558675860857  1.0000
  F   F6        1.0  0.17020599160467278  0.5084096458565073  0.9939441324441189  1.0000
  F   F7        1.0  0.3297940084671776  0.008409646433808848  0.5060558672757004  1.0000
  F   F8        1.0  0.6702059912958512  0.008409646433808848  0.9939441326615732  1.0000
