data_image0
_chemical_formula_structural       H28C8N8O8I12
_chemical_formula_sum              "H28 C8 N8 O8 I12"
_cell_length_a       9.827839832617885
_cell_length_b       8.8873787851641
_cell_length_c       12.40890430650284
_cell_angle_alpha    90.0
_cell_angle_beta     110.07190558951967
_cell_angle_gamma    90.0

_space_group_name_H-M_alt    "P 1"
_space_group_IT_number       1

loop_
  _space_group_symop_operation_xyz
  'x, y, z'

loop_
  _atom_site_type_symbol
  _atom_site_label
  _atom_site_symmetry_multiplicity
  _atom_site_fract_x
  _atom_site_fract_y
  _atom_site_fract_z
  _atom_site_occupancy
  H   H1        1.0  0.544332181578698  0.14983816175619563  0.009906817385128585  1.0000
  H   H2        1.0  0.4556678190421551  0.6498381614656656  0.49009318248953  1.0000
  H   H3        1.0  0.4556678184887392  0.8501618376627443  0.9900931825052685  1.0000
  H   H4        1.0  0.5443321810252821  0.3501618379532744  0.5099068174008671  1.0000
  H   H5        1.0  0.781363067949891  0.1739252660841167  0.029157255764926344  1.0000
  H   H6        1.0  0.218636932670962  0.6739252657935867  0.4708427441097322  1.0000
  H   H7        1.0  0.21863693211754617  0.8260747333348233  0.9708427441254707  1.0000
  H   H8        1.0  0.7813630673964753  0.3260747336253533  0.5291572557806649  1.0000
  H   H9        1.0  0.631607188112554  0.4747437711379255  0.015388934098647864  1.0000
  H   H10       1.0  0.3683928114923111  0.9747437719725865  0.4846110657795208  1.0000
  H   H11       1.0  0.36839281195488327  0.5252562282810145  0.9846110657917491  1.0000
  H   H12       1.0  0.6316071885751262  0.0252562285715445  0.5153889341108763  1.0000
  H   H13       1.0  0.7806540956500262  0.7724689963097187  0.5335772395846539  1.0000
  H   H14       1.0  0.21934590386399522  0.2724689966002487  0.9664227603214817  1.0000
  H   H15       1.0  0.21934590340142304  0.22753100423441242  0.4664227603092532  1.0000
  H   H16       1.0  0.7806540962034421  0.7275310039438825  0.033577239568915396  1.0000
  H   H17       1.0  0.9030089012232674  0.9124737828815589  0.5596236612446825  1.0000
  H   H18       1.0  0.09699109930674203  0.4124737831720889  0.9403763386579429  1.0000
  H   H19       1.0  0.09699109922012242  0.08752621766257225  0.440376339503692  1.0000
  H   H20       1.0  0.9030089007606952  0.5875262173720422  0.05962366123245412  1.0000
  H   H21       1.0  0.9565005224977806  0.7367359148605369  0.6140772591571007  1.0000
  H   H22       1.0  0.04349947701624081  0.23673591515106682  0.885922740749035  1.0000
  H   H23       1.0  0.0434994775696566  0.26326408455840317  0.38592274073329647  1.0000
  H   H24       1.0  0.9565005230511965  0.7632640853930642  0.11407725914136219  1.0000
  H   H25       1.0  0.9128956396522444  0.7692693712360729  0.47369873832014703  1.0000
  H   H26       1.0  0.08710436096860871  0.2692693715266028  0.02630126155451149  1.0000
  H   H27       1.0  0.08710436041519282  0.23073062930805838  0.5263012615702499  1.0000
  H   H28       1.0  0.9128956390988285  0.7307306290175283  0.9736987383358856  1.0000
  C   C1        1.0  0.5260243586996742  0.27229179474601595  0.005823247177340689  1.0000
  C   C2        1.0  0.4739756409051909  0.7722917944554859  0.494176752700828  1.0000
  C   C3        1.0  0.47397564136776305  0.7277082057981152  0.9941767527130564  1.0000
  C   C4        1.0  0.5260243591622464  0.22770820608864517  0.5058232471895691  1.0000
  C   C5        1.0  0.7787904391821578  0.2981763086798679  0.031205508144415257  1.0000
  C   C6        1.0  0.22120956079865978  0.7981763083893378  0.46879449259173084  1.0000
  C   C7        1.0  0.22120956024524388  0.7018236918642633  0.9687944926074693  1.0000
  C   C8        1.0  0.77879043964473  0.20182369102960213  0.5312055081566437  1.0000
  N   N1        1.0  0.6450460198678135  0.35830087441706837  0.01725961305200948  1.0000
  N   N2        1.0  0.3549539797370515  0.8583008741265384  0.48274038682615916  1.0000
  N   N3        1.0  0.35495398019962376  0.6416991250018715  0.9827403868383875  1.0000
  N   N4        1.0  0.6450460203303856  0.14169912529240164  0.5172596130642378  1.0000
  N   N5        1.0  0.8883547262711516  0.7972096262879357  0.5457216946934657  1.0000
  N   N6        1.0  0.11164527324286995  0.2972096254532745  0.95427830521267  1.0000
  N   N7        1.0  0.11164527379628576  0.2027903742561955  0.45427830519693146  1.0000
  N   N8        1.0  0.8883547272005199  0.7027903739656655  0.04572169553570461  1.0000
  O   O1        1.0  0.40629918295877465  0.3287631821069107  0.9925587697489466  1.0000
  O   O2        1.0  0.5937008165552468  0.8287631829415718  0.5074412301571888  1.0000
  O   O3        1.0  0.5937008171086626  0.6712368173120293  0.0074412301414503255  1.0000
  O   O4        1.0  0.4062991835121905  0.17123681760255927  0.4925587697332082  1.0000
  O   O5        1.0  0.8867485789821846  0.3762768720494288  0.04474788865858881  1.0000
  O   O6        1.0  0.11325142062268034  0.8762768717588988  0.4552521112195798  1.0000
  O   O7        1.0  0.1132514210852526  0.6237231284947024  0.9552521112318083  1.0000
  O   O8        1.0  0.8867485794447568  0.12372312878523237  0.5447478886708171  1.0000
  I   I1        1.0  0.2658041691221531  0.4814215499785294  0.2584362572285395  1.0000
  I   I2        1.0  0.7341958304827119  0.9814215496879993  0.24156374264962913  1.0000
  I   I3        1.0  0.7341958299292962  0.5185784494404108  0.7415637426653676  1.0000
  I   I4        1.0  0.2658041695847253  0.01857844973094069  0.7584362572407679  1.0000
  I   I5        1.0  0.572874114051579  0.5029809708867338  0.28988404892288366  1.0000
  I   I6        1.0  0.42712588656927414  0.0029809700520726508  0.21011595095177493  1.0000
  I   I7        1.0  0.4271258860158583  0.49701902965739736  0.7101159509675135  1.0000
  I   I8        1.0  0.572874113498163  0.9970190293668673  0.7898840489386221  1.0000
  I   I9        1.0  0.8842758809780239  0.5252733728186428  0.3198706448606081  1.0000
  I   I10       1.0  0.11572411862684111  0.025273373109172888  0.18012935501756058  1.0000
  I   I11       1.0  0.11572411908941332  0.4747266266002971  0.680129355029789  1.0000
  I   I12       1.0  0.8842758814405962  0.9747266263097671  0.8198706448728366  1.0000
