data_image0
_chemical_formula_structural       H58C58N6O4F6I6
_chemical_formula_sum              "H58 C58 N6 O4 F6 I6"
_cell_length_a       10.254796344700578
_cell_length_b       12.317051217037728
_cell_length_c       12.624162512643945
_cell_angle_alpha    77.27700187776763
_cell_angle_beta     80.58494568157614
_cell_angle_gamma    81.02732607299922

_space_group_name_H-M_alt    "P 1"
_space_group_IT_number       1

loop_
  _space_group_symop_operation_xyz
  'x, y, z'

loop_
  _atom_site_type_symbol
  _atom_site_label
  _atom_site_symmetry_multiplicity
  _atom_site_fract_x
  _atom_site_fract_y
  _atom_site_fract_z
  _atom_site_occupancy
  H   H1        1.0  0.47926817697667723  0.21440127971632467  0.558021402784153  1.0000
  H   H2        1.0  0.5207318236447532  0.7855987203177092  0.4419785972125688  1.0000
  H   H3        1.0  0.5930512704878704  0.24720499192611675  0.7054377823272624  1.0000
  H   H4        1.0  0.4069487291557011  0.7527950081107763  0.2945622176807928  1.0000
  H   H5        1.0  0.36707345877455294  0.5782332905458185  0.6722167507201672  1.0000
  H   H6        1.0  0.6329265408690187  0.4217667094910745  0.327783249287888  1.0000
  H   H7        1.0  0.2629842366263266  0.5305555706510277  0.5260613597325143  1.0000
  H   H8        1.0  0.7370157631636391  0.46944442856201346  0.47393864028524024  1.0000
  H   H9        1.0  0.771858095844779  0.5374774974619769  0.04101471569270122  1.0000
  H   H10       1.0  0.22814190477665125  0.46252250257205696  0.9589852843040206  1.0000
  H   H11       1.0  0.7847300596824522  0.6953562265472565  0.1256324206158771  1.0000
  H   H12       1.0  0.21526994093897833  0.3046437734867773  0.8743675793808448  1.0000
  H   H13       1.0  0.47974222883908646  0.8961272414164315  0.9439929989011273  1.0000
  H   H14       1.0  0.5202577708044853  0.10387275862046144  0.05600700110692778  1.0000
  H   H15       1.0  0.46555645737197915  0.7360510352408192  0.8571926408997499  1.0000
  H   H16       1.0  0.5344435422715924  0.26394896479607394  0.14280735910830525  1.0000
  H   H17       1.0  0.8214802903800373  0.8743608536979703  0.12769494944110166  1.0000
  H   H18       1.0  0.1785197092635343  0.1256391463389227  0.8723050505669536  1.0000
  H   H19       1.0  0.6969105548672198  0.8167110718616261  0.23250432612109667  1.0000
  H   H20       1.0  0.3030894447763517  0.18328892817526699  0.7674956738869585  1.0000
  H   H21       1.0  0.5835345010097666  0.01255644479817864  0.23808774283432327  1.0000
  H   H22       1.0  0.416465498633805  0.9874435552387144  0.7619122571737319  1.0000
  H   H23       1.0  0.7138695561298296  0.06697762196713661  0.1391197013309506  1.0000
  H   H24       1.0  0.28613044351374195  0.9330223780697564  0.8608802986771046  1.0000
  H   H25       1.0  0.8801470435339013  0.973647558588341  0.2672298030203313  1.0000
  H   H26       1.0  0.11985295610967031  0.026352441448552064  0.7327701969877239  1.0000
  H   H27       1.0  0.751357398061357  0.921752053710463  0.3663640754921007  1.0000
  H   H28       1.0  0.2486426015822145  0.07824794632643012  0.6336359245159545  1.0000
  H   H29       1.0  0.7706075869452762  0.17121291603163194  0.2719168456325827  1.0000
  H   H30       1.0  0.22939241269829538  0.8287870840052612  0.7280831543754724  1.0000
  H   H31       1.0  0.6477519509356937  0.11715550095856932  0.37671309885159854  1.0000
  H   H32       1.0  0.3522480487078779  0.8828444990783239  0.6232869011564567  1.0000
  H   H33       1.0  0.9485097607156404  0.0760961513682043  0.3898435710158716  1.0000
  H   H34       1.0  0.05149023990578993  0.9239038486658296  0.6101564289808501  1.0000
  H   H35       1.0  0.824325556284368  0.028453312932194403  0.4960956707653828  1.0000
  H   H36       1.0  0.17567444433706234  0.9715466871018396  0.5039043292313389  1.0000
  H   H37       1.0  0.7296966158664304  0.2281239806589351  0.5030257534432425  1.0000
  H   H38       1.0  0.2703033837771412  0.7718760193779579  0.49697424656481254  1.0000
  H   H39       1.0  0.8526141246578408  0.2756505579450129  0.3948628915291425  1.0000
  H   H40       1.0  0.14738587596358954  0.724349442089021  0.6051371084675793  1.0000
  H   H41       1.0  0.9075436353276456  0.13320195099450455  0.6186200350148783  1.0000
  H   H42       1.0  0.09245636431592585  0.8667980490423886  0.3813799649931769  1.0000
  H   H43       1.0  0.03075270978462814  0.17749576247753793  0.5104210794733152  1.0000
  H   H44       1.0  0.9692472908368023  0.822504237556496  0.48957892052340657  1.0000
  H   H45       1.0  0.9419980717730241  0.37891094053034996  0.5169355423311559  1.0000
  H   H46       1.0  0.058001927870547525  0.621089059506543  0.4830644576768992  1.0000
  H   H47       1.0  0.8218878307031245  0.3328817509556108  0.6285750708999357  1.0000
  H   H48       1.0  0.17811216894044715  0.6671182490812823  0.3714249291081194  1.0000
  H   H49       1.0  0.12475575184968224  0.2849571972726144  0.6251987602163784  1.0000
  H   H50       1.0  0.8752442477938893  0.7150428027642787  0.3748012397916766  1.0000
  H   H51       1.0  0.0077159503176735394  0.2328395581891378  0.7361743305668853  1.0000
  H   H52       1.0  0.9922840493258981  0.7671604418477553  0.26382566944116986  1.0000
  H   H53       1.0  0.0843303849971054  0.40705656729167455  0.7664790496119301  1.0000
  H   H54       1.0  0.9156696146464662  0.5929434327452185  0.23352095039612497  1.0000
  H   H55       1.0  0.9125416554894273  0.42977997625065834  0.7547099141666339  1.0000
  H   H56       1.0  0.08745834415414405  0.5702200237862347  0.2452900858414214  1.0000
  H   H57       1.0  0.028070735383044346  0.48379163345210385  0.642989811943378  1.0000
  H   H58       1.0  0.9719292642605274  0.5162083665847892  0.3570101880646772  1.0000
  C   C1        1.0  0.028140662821966665  0.22121792597760434  0.13794683218826717  1.0000
  C   C2        1.0  0.9718593368216051  0.7787820740592886  0.862053167819788  1.0000
  C   C3        1.0  0.0846848574171558  0.264959449353901  0.21012483090514716  1.0000
  C   C4        1.0  0.9153151422264156  0.735040550682992  0.789875169102908  1.0000
  C   C5        1.0  0.18508185634562174  0.20434261114454386  0.2698639232876708  1.0000
  C   C6        1.0  0.8149181432979498  0.795657388892349  0.7301360767203844  1.0000
  C   C7        1.0  0.22958674331902373  0.09527473613177108  0.25376964136094354  1.0000
  C   C8        1.0  0.7704132573024066  0.9047252639022628  0.7462303586357781  1.0000
  C   C9        1.0  0.17737433810927658  0.046646549803153636  0.18225056998219089  1.0000
  C   C10       1.0  0.8226256615342948  0.9533534502337394  0.8177494300258643  1.0000
  C   C11       1.0  0.07633689702552446  0.11178373046976345  0.12640841466235947  1.0000
  C   C12       1.0  0.9236631026180472  0.8882162695671296  0.8735915853456958  1.0000
  C   C13       1.0  0.4569862992534208  0.2942554684635431  0.5855542335599851  1.0000
  C   C14       1.0  0.5430137003901507  0.7057445315733499  0.4144457664480699  1.0000
  C   C15       1.0  0.5205946540537105  0.31259744039586446  0.6678527242234505  1.0000
  C   C16       1.0  0.4794053465677197  0.6874025596381694  0.33214727577327136  1.0000
  C   C17       1.0  0.4895589459228611  0.4161441314040331  0.7013593844540266  1.0000
  C   C18       1.0  0.5104410537207105  0.58385586863286  0.29864061555402854  1.0000
  C   C19       1.0  0.394656352829654  0.49634582794990556  0.6497922022914946  1.0000
  C   C20       1.0  0.6053436468139176  0.5036541720869875  0.3502077977165605  1.0000
  C   C21       1.0  0.3366170886414109  0.46971318626847347  0.5678453899544591  1.0000
  C   C22       1.0  0.6633829110021606  0.5302868137684196  0.432154610053596  1.0000
  C   C23       1.0  0.5566837599935115  0.43780243657711876  0.7858106335783333  1.0000
  C   C24       1.0  0.4433162396500601  0.5621975634597742  0.21418936642972192  1.0000
  C   C25       1.0  0.61382335770359  0.531180260028901  0.8932075968028449  1.0000
  C   C26       1.0  0.3861766419399817  0.4688197400079922  0.10679240320521015  1.0000
  C   C27       1.0  0.6169550184068876  0.6247170672439087  0.9437180128464004  1.0000
  C   C28       1.0  0.38304498123668396  0.37528293279298436  0.05628198716165467  1.0000
  C   C29       1.0  0.7061213584309376  0.6152025296663755  0.019886564720813748  1.0000
  C   C30       1.0  0.2938786412126341  0.38479747037051754  0.9801134352872414  1.0000
  C   C31       1.0  0.7135649415760097  0.704459742701572  0.06825444809213023  1.0000
  C   C32       1.0  0.28643505904542077  0.2955402573324619  0.9317455519045914  1.0000
  C   C33       1.0  0.6305842872949785  0.8056312746551445  0.04109843358078534  1.0000
  C   C34       1.0  0.36941571332645196  0.19436872537888963  0.9589015664159364  1.0000
  C   C35       1.0  0.5417954945542397  0.8163984753337862  0.9643112494818622  1.0000
  C   C36       1.0  0.4582045050893319  0.18360152470310687  0.03568875052619293  1.0000
  C   C37       1.0  0.5347335891351085  0.7271502404554351  0.9164267613077295  1.0000
  C   C38       1.0  0.46526641050846324  0.2728497595814579  0.08357323870032568  1.0000
  C   C39       1.0  0.7170554070354997  0.8887446059211895  0.16540853766391483  1.0000
  C   C40       1.0  0.2829445935859307  0.1112553941128442  0.8345914623328069  1.0000
  C   C41       1.0  0.6902797069346619  0.9970065345904201  0.20741493553123655  1.0000
  C   C42       1.0  0.30972029270890966  0.0029934654464729583  0.7925850644768185  1.0000
  C   C43       1.0  0.7738411450423461  0.9921591810445947  0.2980706067147198  1.0000
  C   C44       1.0  0.22615885460122553  0.007840818992298385  0.7019293932933353  1.0000
  C   C45       1.0  0.7528884210279956  0.1005985607888629  0.34122620932591424  1.0000
  C   C46       1.0  0.2471115786155761  0.8994014392480302  0.658773790682141  1.0000
  C   C47       1.0  0.8445562558260279  0.09733335249488624  0.42565203677229785  1.0000
  C   C48       1.0  0.15544374479540246  0.9026666475391477  0.5743479632244238  1.0000
  C   C49       1.0  0.8329722699838858  0.20685074857266736  0.4657245951785291  1.0000
  C   C50       1.0  0.1670277306375445  0.7931492514613666  0.5342754048181926  1.0000
  C   C51       1.0  0.9285310741882382  0.20136682518991866  0.5478182257243076  1.0000
  C   C52       1.0  0.07146892545533334  0.7986331748469743  0.4521817742837475  1.0000
  C   C53       1.0  0.9232367827508282  0.3100265029375066  0.5879950761692292  1.0000
  C   C54       1.0  0.07676321689274324  0.6899734970993865  0.4120049238388259  1.0000
  C   C55       1.0  0.02334369963291881  0.30379505988987804  0.6670172974141785  1.0000
  C   C56       1.0  0.9766563009885114  0.6962049401441557  0.33298270258254337  1.0000
  C   C57       1.0  0.011909430233166988  0.41137578785085466  0.7100515787705349  1.0000
  C   C58       1.0  0.9880905694104045  0.5886242121860383  0.2899484212375202  1.0000
  N   N1        1.0  0.36655731345590786  0.37082562150187653  0.535373809241842  1.0000
  N   N2        1.0  0.6334426871655225  0.6291743785321575  0.4646261907548797  1.0000
  N   N3        1.0  0.648533767239033  0.37183807685215736  0.8388028745907178  1.0000
  N   N4        1.0  0.3514662325509325  0.628161922360884  0.16119712542703676  1.0000
  N   N5        1.0  0.6850580638810672  0.4312174824542424  0.9076229551122028  1.0000
  N   N6        1.0  0.3149419357625044  0.5687825175826506  0.09237704489585233  1.0000
  O   O1        1.0  0.5291383576758155  0.5398466729661896  0.8171282900416686  1.0000
  O   O2        1.0  0.4708616419677561  0.4601533270707033  0.18287170996638644  1.0000
  O   O3        1.0  0.6296316479473945  0.8969211045093585  0.08441857086250422  1.0000
  O   O4        1.0  0.3703683516961772  0.10307889552753455  0.9155814291455509  1.0000
  F   F1        1.0  0.0406467168265651  0.37170533817348067  0.22176363124241003  1.0000
  F   F2        1.0  0.9593532837948652  0.6282946618605534  0.7782363687543117  1.0000
  F   F3        1.0  0.32885158004324344  0.03428267899416528  0.3087777298706066  1.0000
  F   F4        1.0  0.6711484205781868  0.9657173210398686  0.6912222701261151  1.0000
  F   F5        1.0  0.02431715110253861  0.0674702396009609  0.05595967391900883  1.0000
  F   F6        1.0  0.9756828486874269  0.9325297596120803  0.9440403260987458  1.0000
  I   I1        1.0  0.8823089752460996  0.3147818850471074  0.04360493700648922  1.0000
  I   I2        1.0  0.1176910253753307  0.6852181149869264  0.9563950629902326  1.0000
  I   I3        1.0  0.26504059572545585  0.27862435555094806  0.37722626412200977  1.0000
  I   I4        1.0  0.7349594039181159  0.7213756444859452  0.6227737358860453  1.0000
  I   I5        1.0  0.24540584633937368  0.8844731582075179  0.15473335213635722  1.0000
  I   I6        1.0  0.7545941542820567  0.11552684182651589  0.8452666478603644  1.0000
