data_image0
_chemical_formula_structural       H42C50N6O4F6I6
_chemical_formula_sum              "H42 C50 N6 O4 F6 I6"
_cell_length_a       8.813793840992055
_cell_length_b       12.659362038895821
_cell_length_c       13.69915421740786
_cell_angle_alpha    115.07033158653054
_cell_angle_beta     99.83636678559363
_cell_angle_gamma    99.22572525670029

_space_group_name_H-M_alt    "P 1"
_space_group_IT_number       1

loop_
  _space_group_symop_operation_xyz
  'x, y, z'

loop_
  _atom_site_type_symbol
  _atom_site_label
  _atom_site_symmetry_multiplicity
  _atom_site_fract_x
  _atom_site_fract_y
  _atom_site_fract_z
  _atom_site_occupancy
  H   H1        1.0  0.8923999509942934  0.39942891452158613  0.7980555970249059  1.0000
  H   H2        1.0  0.10760004984544914  0.6005710854332809  0.20194440275013084  1.0000
  H   H3        1.0  0.735506584557331  0.3454418426976314  0.9127750808138759  1.0000
  H   H4        1.0  0.2644934151463255  0.6545581572601  0.08722491895263285  1.0000
  H   H5        1.0  0.7787589934739764  0.7275471943587603  0.10701419483229258  1.0000
  H   H6        1.0  0.22124100622968015  0.2724528055989711  0.8929858049342161  1.0000
  H   H7        1.0  0.9346295869424364  0.7642725086828986  0.9842442661418384  1.0000
  H   H8        1.0  0.06537041276122027  0.2357274912748328  0.015755733624670424  1.0000
  H   H9        1.0  0.49741525074010834  0.1721964391025621  0.015188903366615348  1.0000
  H   H10       1.0  0.5025847489635481  0.8278035608551693  0.9848110963998933  1.0000
  H   H11       1.0  0.371632445464992  0.9934645741475293  0.03413546484099075  1.0000
  H   H12       1.0  0.6283675553747502  0.0065354258073376335  0.965864534934046  1.0000
  H   H13       1.0  0.24991352083730048  0.2289788985181678  0.32851162525136185  1.0000
  H   H14       1.0  0.7500864788663559  0.7710211014395637  0.6714883745151469  1.0000
  H   H15       1.0  0.3714292630092827  0.40467757106742447  0.30985628605164195  1.0000
  H   H16       1.0  0.6285707366943738  0.595322428890307  0.6901437137148668  1.0000
  H   H17       1.0  0.07524680876039816  0.04426674381528304  0.2748649381815485  1.0000
  H   H18       1.0  0.9247531910530177  0.9557332557544315  0.7251350624164833  1.0000
  H   H19       1.0  0.27020587214008596  0.07867878044215901  0.3622305095668005  1.0000
  H   H20       1.0  0.7297941275635704  0.9213212195155722  0.6377694901997082  1.0000
  H   H21       1.0  0.05819781800625795  0.8243927231796356  0.20103585709736205  1.0000
  H   H22       1.0  0.9418021831393601  0.17560727718980199  0.7989641435138883  1.0000
  H   H23       1.0  0.253428552628967  0.8580142925197078  0.2850221193788255  1.0000
  H   H24       1.0  0.7465714470746895  0.14198570743802344  0.7149778803876832  1.0000
  H   H25       1.0  0.9758929359737798  0.9386620376822763  0.37921085154990736  1.0000
  H   H26       1.0  0.024107063729876744  0.06133796227545521  0.6207891482166012  1.0000
  H   H27       1.0  0.16695514566747283  0.9561031611935359  0.4580322061537251  1.0000
  H   H28       1.0  0.8330448540361837  0.043896838764195555  0.5419677936127836  1.0000
  H   H29       1.0  0.9263497015303931  0.7139707097366913  0.2910792872137159  1.0000
  H   H30       1.0  0.07365029817326348  0.2860292902210401  0.7089207125527929  1.0000
  H   H31       1.0  0.1165402396755475  0.7297152158438871  0.37109861103762337  1.0000
  H   H32       1.0  0.8834597611641949  0.2702847841109799  0.6289013887374134  1.0000
  H   H33       1.0  0.8443381239112714  0.8192325875357239  0.4650333479443517  1.0000
  H   H34       1.0  0.15566187723434685  0.18076741283371356  0.5349666526668985  1.0000
  H   H35       1.0  0.03418756019589012  0.8387862479201922  0.5468644894337857  1.0000
  H   H36       1.0  0.9658124395077663  0.1612137520375393  0.453135510332723  1.0000
  H   H37       1.0  0.8396455265399726  0.6585425100591673  0.5284616078173114  1.0000
  H   H38       1.0  0.16035447429976987  0.34145748989569963  0.47153839195772546  1.0000
  H   H39       1.0  0.9870214867082739  0.6101179248383134  0.45983146079257525  1.0000
  H   H40       1.0  0.0129785129953826  0.3898820751194179  0.5401685389739334  1.0000
  H   H41       1.0  0.7958820772338429  0.5939289532391451  0.3811981029609898  1.0000
  H   H42       1.0  0.2041179239117753  0.4060710471302924  0.6188018976502604  1.0000
  C   C1        1.0  0.7735804975013761  0.22435687765874968  0.2948928206155442  1.0000
  C   C2        1.0  0.22641950231203978  0.7756431219109646  0.7051071799824876  1.0000
  C   C3        1.0  0.7181385125294155  0.2901517404706846  0.3860381161233263  1.0000
  C   C4        1.0  0.2818614871742411  0.7098482594870468  0.6139618836431824  1.0000
  C   C5        1.0  0.6360526538718327  0.23732793857356796  0.4394115464180769  1.0000
  C   C6        1.0  0.3639473469679096  0.7626720613812991  0.56058845335696  1.0000
  C   C7        1.0  0.6081254755813279  0.1126896590820546  0.39698258112004337  1.0000
  C   C8        1.0  0.39187452412232854  0.8873103408756768  0.6030174186464654  1.0000
  C   C9        1.0  0.6584157985599742  0.04099708413093964  0.30555201063160375  1.0000
  C   C10       1.0  0.34158420114368226  0.9590029158267918  0.694447989134905  1.0000
  C   C11       1.0  0.740930490485028  0.0995750534389568  0.2563083995021603  1.0000
  C   C12       1.0  0.25906950921862854  0.9004249465187746  0.7436916002643483  1.0000
  C   C13       1.0  0.8656050771710795  0.46976519910069775  0.8678639423686967  1.0000
  C   C14       1.0  0.13439492366866304  0.5302348008541694  0.1321360574063402  1.0000
  C   C15       1.0  0.7779934863320649  0.4396242816453412  0.9321643232918432  1.0000
  C   C16       1.0  0.22200651337159166  0.5603757183123903  0.06783567647466553  1.0000
  C   C17       1.0  0.7448966129227574  0.5329362749860302  0.02069744773395593  1.0000
  C   C18       1.0  0.25510338678089917  0.46706372497170123  0.9793025520325529  1.0000
  C   C19       1.0  0.802701888454885  0.6520619616582719  0.04024254571719485  1.0000
  C   C20       1.0  0.19729811124877153  0.3479380382994596  0.9597574540493138  1.0000
  C   C21       1.0  0.8892849726930243  0.6725691892892182  0.9714204365636953  1.0000
  C   C22       1.0  0.11071502845259393  0.32743081108021943  0.028579564047555038  1.0000
  C   C23       1.0  0.6533584064124797  0.5096199953073277  0.09112168879537788  1.0000
  C   C24       1.0  0.34664159329117683  0.49038000465040366  0.9088783109711308  1.0000
  C   C25       1.0  0.521083033912604  0.4063256453610746  0.15505486816385514  1.0000
  C   C26       1.0  0.47891696692713837  0.5936743545937925  0.8449451316111818  1.0000
  C   C27       1.0  0.44628948206311997  0.3014050404825367  0.16271887370908714  1.0000
  C   C28       1.0  0.5537105176405366  0.6985949594751946  0.8372811260574216  1.0000
  C   C29       1.0  0.4442950053654738  0.18422331911880227  0.08414543936243837  1.0000
  C   C30       1.0  0.5557049943381827  0.8157766808389292  0.9158545604040703  1.0000
  C   C31       1.0  0.3751946385185774  0.08462678086414893  0.09431811594751642  1.0000
  C   C32       1.0  0.6248053623211651  0.9153732190907182  0.9056818838275205  1.0000
  C   C33       1.0  0.30715559095104433  0.09969618191068637  0.183621674720082  1.0000
  C   C34       1.0  0.6928444090584879  0.9003038184616154  0.81637832588264  1.0000
  C   C35       1.0  0.3042700478320834  0.21569963909845732  0.26011315883210234  1.0000
  C   C36       1.0  0.695729951871573  0.7843003608592741  0.7398868409344064  1.0000
  C   C37       1.0  0.3734231942908791  0.3151785724918351  0.24946941415345655  1.0000
  C   C38       1.0  0.6265768055225368  0.6848214270778793  0.7505305864445752  1.0000
  C   C39       1.0  0.1828338103000053  0.011434234350365873  0.28326402193553635  1.0000
  C   C40       1.0  0.8171661897095269  0.9885657660219359  0.7167359786671857  1.0000
  C   C41       1.0  0.1443155709044486  0.8897529309412725  0.2812193061632473  1.0000
  C   C42       1.0  0.8556844291050837  0.1102470694310295  0.7187806944394749  1.0000
  C   C43       1.0  0.07600558639940812  0.8963776176182112  0.3781853767644623  1.0000
  C   C44       1.0  0.9239944133042484  0.10362238233952024  0.6218146230020465  1.0000
  C   C45       1.0  0.01714468882540738  0.7728594200158938  0.37134708182675474  1.0000
  C   C46       1.0  0.9828553108782491  0.22714057994183762  0.628652917939754  1.0000
  C   C47       1.0  0.9452633241928529  0.7779880257573081  0.46644509769872217  1.0000
  C   C48       1.0  0.05473667531468722  0.22201197339783588  0.5335549020630962  1.0000
  C   C49       1.0  0.8892672208363845  0.6540357661729596  0.45897276116061025  1.0000
  C   C50       1.0  0.11073277917314764  0.3459642341993423  0.5410272394421118  1.0000
  N   N1        1.0  0.9209795998666799  0.5837539260785851  0.8864012630204868  1.0000
  N   N2        1.0  0.07902039983697648  0.41624607387914625  0.1135987367460218  1.0000
  N   N3        1.0  0.614147263159953  0.5870215718220263  0.17661350889816926  1.0000
  N   N4        1.0  0.3858527365437035  0.4129784281357052  0.8233864908683396  1.0000
  N   N5        1.0  0.5303919754357546  0.5214422134081125  0.21809771701794314  1.0000
  N   N6        1.0  0.46960802457377754  0.47855778696418927  0.781902283584779  1.0000
  O   O1        1.0  0.5969013878805732  0.3933990213763552  0.07243259450035697  1.0000
  O   O2        1.0  0.4030986118230833  0.6066009785813762  0.9275674052661518  1.0000
  O   O3        1.0  0.24858535925132308  0.9980594593197122  0.19023464008635377  1.0000
  O   O4        1.0  0.7514146405620931  0.00194054025000228  0.8097653605116781  1.0000
  F   F1        1.0  0.745742235399087  0.41106230508085323  0.42532495820400756  1.0000
  F   F2        1.0  0.2542577652445391  0.5889376940714264  0.574675041566339  1.0000
  F   F3        1.0  0.5288511820663583  0.05872852060749  0.44699769650198273  1.0000
  F   F4        1.0  0.4711488179431739  0.9412714797648118  0.5530023041007393  1.0000
  F   F5        1.0  0.7933622537070577  0.032125664002349646  0.16799412876379233  1.0000
  F   F6        1.0  0.20663774599659884  0.9678743359553817  0.8320058710027164  1.0000
  I   I1        1.0  0.9048424015223375  0.31313761279645785  0.22296661588026717  1.0000
  I   I2        1.0  0.09515759818131901  0.6868623871612735  0.7770333838862414  1.0000
  I   I3        1.0  0.560459347636437  0.33946060406072504  0.57951977446472  1.0000
  I   I4        1.0  0.4395406520672194  0.6605393958970063  0.42048022530178863  1.0000
  I   I5        1.0  0.6189572619693999  0.8550137925081134  0.25347685929794517  1.0000
  I   I6        1.0  0.38104273753814033  0.14498620664703069  0.7465231404638734  1.0000
