data_image0
_chemical_formula_structural       H60C24N8O16Cl4
_chemical_formula_sum              "H60 C24 N8 O16 Cl4"
_cell_length_a       5.04772583264458
_cell_length_b       19.151031465368778
_cell_length_c       10.835072283045298
_cell_angle_alpha    90.0
_cell_angle_beta     89.64824794159499
_cell_angle_gamma    90.0

_space_group_name_H-M_alt    "P 1"
_space_group_IT_number       1

loop_
  _space_group_symop_operation_xyz
  'x, y, z'

loop_
  _atom_site_type_symbol
  _atom_site_label
  _atom_site_symmetry_multiplicity
  _atom_site_fract_x
  _atom_site_fract_y
  _atom_site_fract_z
  _atom_site_occupancy
  H   H1        1.0  0.6459686057405613  0.06196503995860092  0.1700317412228411  1.0000
  H   H2        1.0  0.3540313937535042  0.5619650398184315  0.8299682589342844  1.0000
  H   H3        1.0  0.6925689811499974  0.9697760104245313  0.3341570097195297  1.0000
  H   H4        1.0  0.307431018344068  0.4697760100425357  0.6658429904375959  1.0000
  H   H5        1.0  0.49706023317117  0.9407861285477273  0.20878593430249648  1.0000
  H   H6        1.0  0.5029397663228954  0.44078612868789663  0.7912140658546291  1.0000
  H   H7        1.0  0.34002373335569874  0.9657224710556269  0.349116356138829  1.0000
  H   H8        1.0  0.6599762661407534  0.46572247119579635  0.6508836430953616  1.0000
  H   H9        1.0  0.35110072414723686  0.09945139944258999  0.3983761259204963  1.0000
  H   H10       1.0  0.6488992753468285  0.5994513998245856  0.6016238742366292  1.0000
  H   H11       1.0  0.5114612324502884  0.15429299280006692  0.3008724081076739  1.0000
  H   H12       1.0  0.48853876704377713  0.6542929926598975  0.6991275920494515  1.0000
  H   H13       1.0  0.6854613687337981  0.09596006686758435  0.38623766301783446  1.0000
  H   H14       1.0  0.31453863076026717  0.595960066727415  0.6137623371392911  1.0000
  H   H15       1.0  0.9934436283010688  0.02635592244275395  0.029256410684402948  1.0000
  H   H16       1.0  0.0065563731765094216  0.5263559223025845  0.9707435885452333  1.0000
  H   H17       1.0  0.32980066794958485  0.06678026519421067  0.8577360632882287  1.0000
  H   H18       1.0  0.6701993335256066  0.5667802655762063  0.14226393686434263  1.0000
  H   H19       1.0  0.32182958846206383  0.9857009464026012  0.6764221427063313  1.0000
  H   H20       1.0  0.6781704110320016  0.48570094602060554  0.3235778574507943  1.0000
  H   H21       1.0  0.4973126163806453  0.9485243060066272  0.8031716310082355  1.0000
  H   H22       1.0  0.5026873831158071  0.4485243056246315  0.196828368225955  1.0000
  H   H23       1.0  0.6750697218354841  0.9833417998427045  0.6743822480464248  1.0000
  H   H24       1.0  0.3249302776609682  0.4833417994607088  0.3256177511877658  1.0000
  H   H25       1.0  0.6695305991020354  0.11932139081554147  0.6541197211881831  1.0000
  H   H26       1.0  0.33046940039203  0.6193213911975372  0.34588027896894247  1.0000
  H   H27       1.0  0.4883893869665777  0.16689383784783277  0.75698259377685  1.0000
  H   H28       1.0  0.5116106125298745  0.6668938377076634  0.24301740545734057  1.0000
  H   H29       1.0  0.3361043072694544  0.11506827159596886  0.6514298723931754  1.0000
  H   H30       1.0  0.6638956922269978  0.6150682714557993  0.34857012684101507  1.0000
  H   H31       1.0  0.4662950095236885  0.316594938552739  0.6860283739795315  1.0000
  H   H32       1.0  0.5337049899703769  0.8165949384125696  0.31397162617759394  1.0000
  H   H33       1.0  0.12803742267796223  0.2805745147313155  0.5556043917705249  1.0000
  H   H34       1.0  0.8719625787972294  0.7805745151133112  0.44439560838204634  1.0000
  H   H35       1.0  0.19879055536934356  0.3690832852936305  0.3898372758186548  1.0000
  H   H36       1.0  0.801209444124722  0.8690832851534612  0.6101627243384706  1.0000
  H   H37       1.0  0.9761736780280114  0.40117148122768526  0.5048395372252731  1.0000
  H   H38       1.0  0.023826321466054085  0.9011714810875158  0.4951604629318524  1.0000
  H   H39       1.0  0.8513540028649801  0.3714852739323722  0.36055897161597145  1.0000
  H   H40       1.0  0.14864599662908543  0.8714852743143677  0.639441028541154  1.0000
  H   H41       1.0  0.011372142265222263  0.18558872697938825  0.42784226543951387  1.0000
  H   H42       1.0  0.9886278592099691  0.6855887268392188  0.5721577347130574  1.0000
  H   H43       1.0  0.18770630658791446  0.24296557542679595  0.3402064247895338  1.0000
  H   H44       1.0  0.8122936929061509  0.7429655752866265  0.6597935753675918  1.0000
  H   H45       1.0  0.854217225873383  0.23819780925372513  0.32601032644930866  1.0000
  H   H46       1.0  0.14578277362068237  0.7381978091135557  0.6739896737078168  1.0000
  H   H47       1.0  0.8218794407585327  0.2790457187469873  0.8764801949636117  1.0000
  H   H48       1.0  0.1781205587355327  0.7790457186068178  0.12351980519351367  1.0000
  H   H49       1.0  0.8452606071311353  0.3598341725071831  0.059919578795345665  1.0000
  H   H50       1.0  0.15473939434405623  0.8598341723670135  0.9400804213572257  1.0000
  H   H51       1.0  0.0010224481804061714  0.396084016869633  0.9270931417212633  1.0000
  H   H52       1.0  0.9989775532947852  0.8960840167294635  0.07290685843130795  1.0000
  H   H53       1.0  0.19858226429779827  0.3608025991965516  0.04743656564396077  1.0000
  H   H54       1.0  0.801417735198654  0.8608025995785472  0.9525634335902299  1.0000
  H   H55       1.0  0.1757005733259683  0.2244688103496477  0.07120138399556339  1.0000
  H   H56       1.0  0.8242994261680971  0.7244688102094783  0.928798616161562  1.0000
  H   H57       1.0  0.9898595127875451  0.1775031369013805  0.9704208834558868  1.0000
  H   H58       1.0  0.010140486706520263  0.677503136761211  0.02957911670123883  1.0000
  H   H59       1.0  0.8422315742205931  0.22874944975793457  0.07922179222135363  1.0000
  H   H60       1.0  0.15776842527585924  0.7287494496177651  0.920778207012837  1.0000
  C   C1        1.0  0.22261385661139552  0.06451803821816796  0.16952594322208128  1.0000
  C   C2        1.0  0.7773861428826699  0.5645180380779985  0.8304740569350441  1.0000
  C   C3        1.0  0.48431719430521575  0.05159180286381374  0.23574340101149238  1.0000
  C   C4        1.0  0.5156828051888496  0.5515918032458094  0.764256599145633  1.0000
  C   C5        1.0  0.5045425590705424  0.9775806882180114  0.2857721718566392  1.0000
  C   C6        1.0  0.495457440423523  0.4775806878360156  0.7142278283004863  1.0000
  C   C7        1.0  0.7507263891695566  0.06905362264123534  0.8800250055412182  1.0000
  C   C8        1.0  0.24927361032450887  0.569053622501066  0.11997499461590716  1.0000
  C   C9        1.0  0.5062100203734043  0.06051594829739282  0.7987447036707389  1.0000
  C   C10       1.0  0.4937899791206611  0.5605159481572234  0.20125529648638654  1.0000
  C   C11       1.0  0.49966848709975564  0.9900428347311941  0.7336333172613924  1.0000
  C   C12       1.0  0.5003315123966967  0.4900428348713635  0.2663666819727982  1.0000
  C   C13       1.0  0.7066272168520792  0.277281281146793  0.5494113038315115  1.0000
  C   C14       1.0  0.2933727826419862  0.7772812810066235  0.45058869632561394  1.0000
  C   C15       1.0  0.9741193600617863  0.28949248974006847  0.48605970315901403  1.0000
  C   C16       1.0  0.02588063943466586  0.789492489599899  0.5139402960751766  1.0000
  C   C17       1.0  0.001752967217584942  0.3623838712055691  0.43151984860063974  1.0000
  C   C18       1.0  0.9982470342576065  0.8623838715875647  0.5684801515519315  1.0000
  C   C19       1.0  0.24039000026206825  0.2747681209503287  0.8424260301015483  1.0000
  C   C20       1.0  0.7596099992319972  0.7747681208101593  0.15757397005557733  1.0000
  C   C21       1.0  0.0049271039302327254  0.2840801389647363  0.9302054586521459  1.0000
  C   C22       1.0  0.9950728975449586  0.7840801388245668  0.06979454150042534  1.0000
  C   C23       1.0  0.01346614161292023  0.3544192991523184  0.9958759176010528  1.0000
  C   C24       1.0  0.9865338578811451  0.8544192990121491  0.004124082556072807  1.0000
  N   N1        1.0  0.511000009216648  0.10372652635405963  0.33699921020217044  1.0000
  N   N2        1.0  0.4889999902774174  0.6037265262138901  0.663000789954955  1.0000
  N   N3        1.0  0.499959479004097  0.11919874206921952  0.7085269203468422  1.0000
  N   N4        1.0  0.5000405204899684  0.6191987419290501  0.29147307981028336  1.0000
  N   N5        1.0  0.010670325958949506  0.23549705289532583  0.3886331382017015  1.0000
  N   N6        1.0  0.9893296735375028  0.7354970527551563  0.611366861032489  1.0000
  N   N7        1.0  0.003745235620095878  0.22483055692254264  0.019561599913721736  1.0000
  N   N8        1.0  0.9962547638739695  0.7248305567823732  0.9804384002434038  1.0000
  O   O1        1.0  0.1843507546922098  0.019995959000562686  0.08079824478140296  1.0000
  O   O2        1.0  0.8156492467829818  0.5199959588603933  0.9192017553711682  1.0000
  O   O3        1.0  0.07157611196133688  0.11288158049916146  0.2008230941145933  1.0000
  O   O4        1.0  0.9284238875327285  0.6128815808811572  0.7991769060425323  1.0000
  O   O5        1.0  0.7721415440078067  0.023194273937842253  0.965098838464633  1.0000
  O   O6        1.0  0.22785845746738478  0.5231942737976728  0.03490116168793832  1.0000
  O   O7        1.0  0.9088482993134271  0.11860540118204337  0.8584543718560765  1.0000
  O   O8        1.0  0.09115170018063821  0.618605401041874  0.14154562830104894  1.0000
  O   O9        1.0  0.6557138120770085  0.32445260043753726  0.6322853565741996  1.0000
  O   O10       1.0  0.34428618741705685  0.8244526002973678  0.3677146435829259  1.0000
  O   O11       1.0  0.5636544664182885  0.22672033659657456  0.5218167199945265  1.0000
  O   O12       1.0  0.436345535056903  0.7267203364564051  0.47818328015804484  1.0000
  O   O13       1.0  0.2457112383998395  0.3177630291613546  0.7519738951365992  1.0000
  O   O14       1.0  0.7542887630753521  0.8177630290211853  0.24802610501597225  1.0000
  O   O15       1.0  0.40900054465998714  0.2279715934828333  0.8647318705202862  1.0000
  O   O16       1.0  0.5909994568152043  0.7279715933426638  0.13526812963228502  1.0000
  Cl  Cl1       1.0  0.013163164911294573  0.0846510765193807  0.5189566161933198  1.0000
  Cl  Cl2       1.0  0.9868368345827708  0.5846510769013764  0.4810433839638057  1.0000
  Cl  Cl3       1.0  0.5164528272858306  0.255812777440166  0.20866669525478876  1.0000
  Cl  Cl4       1.0  0.4835471741893608  0.7558127772999966  0.7913333048977826  1.0000
