data_image0
_chemical_formula_structural       H152C80N16O32Cl8
_chemical_formula_sum              "H152 C80 N16 O32 Cl8"
_cell_length_a       12.818211396705605
_cell_length_b       12.818211396705605
_cell_length_c       15.808126960015185
_cell_angle_alpha    90.0
_cell_angle_beta     90.0
_cell_angle_gamma    90.0

_space_group_name_H-M_alt    "P 1"
_space_group_IT_number       1

loop_
  _space_group_symop_operation_xyz
  'x, y, z'

loop_
  _atom_site_type_symbol
  _atom_site_label
  _atom_site_symmetry_multiplicity
  _atom_site_fract_x
  _atom_site_fract_y
  _atom_site_fract_z
  _atom_site_occupancy
  H   H1        1.0  0.38045795775012564  0.012252643925061578  0.04655436168127113  1.0000
  H   H2        1.0  0.6195420425068833  0.9877473563319474  0.5465543616807909  1.0000
  H   H3        1.0  0.4877473562034429  0.8804579570984901  0.296554361681031  1.0000
  H   H4        1.0  0.5122526440535661  0.11954204237837883  0.7965543616805507  1.0000
  H   H5        1.0  0.11954204237837883  0.5122526440535661  0.20344563831848875  1.0000
  H   H6        1.0  0.8804579570984901  0.4877473562034429  0.7034456383180085  1.0000
  H   H7        1.0  0.012252643925061578  0.38045795775012564  0.9534456383177683  1.0000
  H   H8        1.0  0.9877473563319474  0.6195420425068833  0.45344563831824863  1.0000
  H   H9        1.0  0.32374085132240293  0.9869467352716146  0.22577808610898023  1.0000
  H   H10       1.0  0.676259148154466  0.013053264985394344  0.7257780861084999  1.0000
  H   H11       1.0  0.5130532651138988  0.8237408514509074  0.4757780861087401  1.0000
  H   H12       1.0  0.48694673514311015  0.17625914880610155  0.9757780861082598  1.0000
  H   H13       1.0  0.17625914880610155  0.48694673514311015  0.024221913890779646  1.0000
  H   H14       1.0  0.8237408514509074  0.5130532651138988  0.5242219138902994  1.0000
  H   H15       1.0  0.9869467352716146  0.32374085132240293  0.7742219138900592  1.0000
  H   H16       1.0  0.013053264985394344  0.676259148154466  0.2742219138905395  1.0000
  H   H17       1.0  0.3829335925339423  0.9051234958554228  0.15795777110823517  1.0000
  H   H18       1.0  0.6170664077230666  0.09487650440158607  0.657957771107755  1.0000
  H   H19       1.0  0.5948765037499505  0.8829335926624468  0.407957771107995  1.0000
  H   H20       1.0  0.4051234957269184  0.11706640759456215  0.9079577711075147  1.0000
  H   H21       1.0  0.11706640759456215  0.4051234957269184  0.09204222889152469  1.0000
  H   H22       1.0  0.8829335926624468  0.5948765037499505  0.5920422288910444  1.0000
  H   H23       1.0  0.9051234958554228  0.3829335925339423  0.8420422288908043  1.0000
  H   H24       1.0  0.09487650440158607  0.6170664077230666  0.34204222889128455  1.0000
  H   H25       1.0  0.22952344355595047  0.8374793516636018  0.11442057332757294  1.0000
  H   H26       1.0  0.7704765567010585  0.16252064859340726  0.6144205733270927  1.0000
  H   H27       1.0  0.6625206487219117  0.7295234429043148  0.3644205733273328  1.0000
  H   H28       1.0  0.3374793515350972  0.270476556572554  0.8644205733268526  1.0000
  H   H29       1.0  0.270476556572554  0.3374793515350972  0.13557942667218695  1.0000
  H   H30       1.0  0.7295234429043148  0.6625206487219117  0.6355794266717066  1.0000
  H   H31       1.0  0.8374793516636018  0.22952344355595047  0.8855794266714666  1.0000
  H   H32       1.0  0.16252064859340726  0.7704765567010585  0.38557942667194683  1.0000
  H   H33       1.0  0.17681859035204475  0.903255071372569  0.20338128977153105  1.0000
  H   H34       1.0  0.8231814091248241  0.09674492810429978  0.7033812897710507  1.0000
  H   H35       1.0  0.5967449282328043  0.6768185904805493  0.4533812897712909  1.0000
  H   H36       1.0  0.4032550712440646  0.32318140977645965  0.9533812897708107  1.0000
  H   H37       1.0  0.32318140977645965  0.4032550712440646  0.046618710228228846  1.0000
  H   H38       1.0  0.6768185904805493  0.5967449282328043  0.5466187102277485  1.0000
  H   H39       1.0  0.903255071372569  0.17681859035204475  0.7966187102275085  1.0000
  H   H40       1.0  0.09674492810429978  0.8231814091248241  0.29661871022798875  1.0000
  H   H41       1.0  0.08541656679818808  0.0121778440976655  0.10604701709698248  1.0000
  H   H42       1.0  0.9145834326786808  0.9878221553792034  0.6060470170965022  1.0000
  H   H43       1.0  0.4878221552506989  0.5854165669266925  0.35604701709674236  1.0000
  H   H44       1.0  0.51217784422617  0.4145834333303164  0.8560470170962621  1.0000
  H   H45       1.0  0.4145834333303164  0.51217784422617  0.1439529829027774  1.0000
  H   H46       1.0  0.5854165669266925  0.4878221552506989  0.6439529829022972  1.0000
  H   H47       1.0  0.0121778440976655  0.08541656679818808  0.8939529829020569  1.0000
  H   H48       1.0  0.9878221553792034  0.9145834326786808  0.3939529829025372  1.0000
  H   H49       1.0  0.1559019030153928  0.9579214899791535  0.0201048378978666  1.0000
  H   H50       1.0  0.8440980972416161  0.042078509497715355  0.5201048378973864  1.0000
  H   H51       1.0  0.5420785096262198  0.6559019031438972  0.27010483789762646  1.0000
  H   H52       1.0  0.45792149063078913  0.3440980971131116  0.7701048378971462  1.0000
  H   H53       1.0  0.3440980971131116  0.45792149063078913  0.22989516210189326  1.0000
  H   H54       1.0  0.6559019031438972  0.5420785096262198  0.729895162101413  1.0000
  H   H55       1.0  0.9579214899791535  0.1559019030153928  0.9798951621011729  1.0000
  H   H56       1.0  0.042078509497715355  0.8440980972416161  0.47989516210165317  1.0000
  H   H57       1.0  0.20948841432667725  0.14744228672073023  0.12545690865314857  1.0000
  H   H58       1.0  0.7905115851501916  0.8525577135362786  0.6254569086526683  1.0000
  H   H59       1.0  0.35255771340777425  0.7094884144551817  0.3754569086529084  1.0000
  H   H60       1.0  0.6474422868492348  0.29051158580182723  0.8754569086524281  1.0000
  H   H61       1.0  0.29051158580182723  0.6474422868492348  0.1245430913466113  1.0000
  H   H62       1.0  0.7094884144551817  0.35255771340777425  0.6245430913461311  1.0000
  H   H63       1.0  0.14744228672073023  0.20948841432667725  0.8745430913458909  1.0000
  H   H64       1.0  0.8525577135362786  0.7905115851501916  0.37454309134637115  1.0000
  H   H65       1.0  0.23594622497623188  0.12196032048603797  0.015987818205108677  1.0000
  H   H66       1.0  0.7640537752807771  0.878039679770971  0.5159878182046285  1.0000
  H   H67       1.0  0.3780396796424665  0.7359462251047363  0.26598781820486855  1.0000
  H   H68       1.0  0.6219603206145424  0.2640537751522726  0.7659878182043883  1.0000
  H   H69       1.0  0.2640537751522726  0.6219603206145424  0.23401218179465122  1.0000
  H   H70       1.0  0.7359462251047363  0.3780396796424665  0.7340121817941709  1.0000
  H   H71       1.0  0.12196032048603797  0.23594622497623188  0.9840121817939308  1.0000
  H   H72       1.0  0.878039679770971  0.7640537752807771  0.4840121817944111  1.0000
  H   H73       1.0  0.5128360249768922  0.2669580929894373  0.12358199835700988  1.0000
  H   H74       1.0  0.48716397528011673  0.7330419072675717  0.6235819983565296  1.0000
  H   H75       1.0  0.23304190713906717  0.012836024848387735  0.37358199835676975  1.0000
  H   H76       1.0  0.7669580931179418  0.9871639746284812  0.8735819983562895  1.0000
  H   H77       1.0  0.9871639746284812  0.7669580931179418  0.12641800164275  1.0000
  H   H78       1.0  0.012836024848387735  0.23304190713906717  0.6264180016422697  1.0000
  H   H79       1.0  0.2669580929894373  0.5128360249768922  0.8764180016420297  1.0000
  H   H80       1.0  0.7330419072675717  0.48716397528011673  0.3764180016425099  1.0000
  H   H81       1.0  0.7433079651384709  0.40730221779161907  0.19489436400611  1.0000
  H   H82       1.0  0.25669203433839805  0.59269778246539  0.6948943640056298  1.0000
  H   H83       1.0  0.0926977823368854  0.24330796579010644  0.44489436400586985  1.0000
  H   H84       1.0  0.9073022179201234  0.7566920344669025  0.9448943640053895  1.0000
  H   H85       1.0  0.7566920344669025  0.9073022179201234  0.0551056359936499  1.0000
  H   H86       1.0  0.24330796579010644  0.0926977823368854  0.5551056359931696  1.0000
  H   H87       1.0  0.40730221779161907  0.7433079651384709  0.8051056359929295  1.0000
  H   H88       1.0  0.59269778246539  0.25669203433839805  0.3051056359934098  1.0000
  H   H89       1.0  0.7767590954662327  0.44950388253706314  0.013787950372065498  1.0000
  H   H90       1.0  0.2232409040106363  0.5504961177199458  0.5137879503715853  1.0000
  H   H91       1.0  0.05049611759144136  0.2767590961178682  0.2637879503718254  1.0000
  H   H92       1.0  0.9495038826655676  0.7232409041391408  0.7637879503713451  1.0000
  H   H93       1.0  0.7232409041391408  0.9495038826655676  0.23621204962769438  1.0000
  H   H94       1.0  0.2767590961178682  0.05049611759144136  0.7362120496272141  1.0000
  H   H95       1.0  0.44950388253706314  0.7767590954662327  0.986212049626974  1.0000
  H   H96       1.0  0.5504961177199458  0.2232409040106363  0.48621204962745423  1.0000
  H   H97       1.0  0.8630697870096987  0.4098863349492214  0.08836049732729742  1.0000
  H   H98       1.0  0.13693021324731017  0.5901136653077876  0.5883604973268172  1.0000
  H   H99       1.0  0.09011366517928313  0.3630697868811943  0.3383604973270573  1.0000
  H   H100      1.0  0.9098863342975858  0.6369302125956746  0.838360497326577  1.0000
  H   H101      1.0  0.6369302125956746  0.9098863342975858  0.16163950267246244  1.0000
  H   H102      1.0  0.3630697868811943  0.09011366517928313  0.6616395026719821  1.0000
  H   H103      1.0  0.4098863349492214  0.8630697870096987  0.9116395026717421  1.0000
  H   H104      1.0  0.5901136653077876  0.13693021324731017  0.4116395026722223  1.0000
  H   H105      1.0  0.8824971643787443  0.5721523138466023  0.14554113183803719  1.0000
  H   H106      1.0  0.11750283587826463  0.42784768563026654  0.6455411318375569  1.0000
  H   H107      1.0  0.927847685758771  0.38249716425023983  0.39554113183779704  1.0000
  H   H108      1.0  0.07215231371809784  0.6175028352266291  0.8955411318373169  1.0000
  H   H109      1.0  0.6175028352266291  0.07215231371809784  0.10445886816172267  1.0000
  H   H110      1.0  0.38249716425023983  0.927847685758771  0.6044588681612424  1.0000
  H   H111      1.0  0.5721523138466023  0.8824971643787443  0.8544588681610024  1.0000
  H   H112      1.0  0.42784768563026654  0.11750283587826463  0.3544588681614826  1.0000
  H   H113      1.0  0.8686519082421813  0.6001084630244898  0.03488950281048794  1.0000
  H   H114      1.0  0.13134809123468758  0.3998915372325191  0.5348895028100077  1.0000
  H   H115      1.0  0.8998915373610236  0.3686519088938169  0.2848895028102478  1.0000
  H   H116      1.0  0.10010846289598539  0.631348091363192  0.7848895028097675  1.0000
  H   H117      1.0  0.631348091363192  0.10010846289598539  0.21511049718927192  1.0000
  H   H118      1.0  0.3686519088938169  0.8998915373610236  0.7151104971887917  1.0000
  H   H119      1.0  0.6001084630244898  0.8686519082421813  0.9651104971885515  1.0000
  H   H120      1.0  0.3998915372325191  0.13134809123468758  0.46511049718903175  1.0000
  H   H121      1.0  0.7410310772719233  0.6883141381384597  0.15960924443369834  1.0000
  H   H122      1.0  0.2589689222049455  0.3116858613384092  0.6596092444332181  1.0000
  H   H123      1.0  0.8116858614669137  0.24103107792355896  0.4096092444334582  1.0000
  H   H124      1.0  0.18831413800995522  0.75896892233345  0.909609244432978  1.0000
  H   H125      1.0  0.75896892233345  0.18831413800995522  0.09039075556606153  1.0000
  H   H126      1.0  0.24103107792355896  0.8116858614669137  0.5903907555655813  1.0000
  H   H127      1.0  0.6883141381384597  0.7410310772719233  0.8403907555653412  1.0000
  H   H128      1.0  0.3116858613384092  0.2589689222049455  0.3403907555658214  1.0000
  H   H129      1.0  0.691743233559003  0.6619295779581742  0.05762185439831039  1.0000
  H   H130      1.0  0.3082567659178659  0.33807042229883477  0.5576218543978302  1.0000
  H   H131      1.0  0.8380704224273392  0.1917432342106386  0.30762185439807027  1.0000
  H   H132      1.0  0.16192957782966977  0.8082567660463703  0.80762185439759  1.0000
  H   H133      1.0  0.8082567660463703  0.16192957782966977  0.19237814560144947  1.0000
  H   H134      1.0  0.1917432342106386  0.8380704224273392  0.6923781456009692  1.0000
  H   H135      1.0  0.6619295779581742  0.691743233559003  0.9423781456007291  1.0000
  H   H136      1.0  0.33807042229883477  0.3082567659178659  0.44237814560120936  1.0000
  H   H137      1.0  0.5786714807891506  0.5426256569452134  0.11809333988282991  1.0000
  H   H138      1.0  0.42132851946785826  0.4573743433117956  0.6180933398823496  1.0000
  H   H139      1.0  0.9573743434403  0.07867148066064623  0.3680933398825898  1.0000
  H   H140      1.0  0.0426256568167089  0.9213285195963626  0.8680933398821096  1.0000
  H   H141      1.0  0.9213285195963626  0.0426256568167089  0.13190666011692995  1.0000
  H   H142      1.0  0.07867148066064623  0.9573743434403  0.6319066601164497  1.0000
  H   H143      1.0  0.5426256569452134  0.5786714807891506  0.8819066601162096  1.0000
  H   H144      1.0  0.4573743433117956  0.42132851946785826  0.38190666011668983  1.0000
  H   H145      1.0  0.6411744872699074  0.5504178361275345  0.2178065844681635  1.0000
  H   H146      1.0  0.3588255122069615  0.4495821641294745  0.7178065844676833  1.0000
  H   H147      1.0  0.9495821642579789  0.141174487921543  0.4678065844679234  1.0000
  H   H148      1.0  0.050417835999029964  0.858825512335466  0.9678065844674432  1.0000
  H   H149      1.0  0.858825512335466  0.050417835999029964  0.03219341553159636  1.0000
  H   H150      1.0  0.141174487921543  0.9495821642579789  0.5321934155311161  1.0000
  H   H151      1.0  0.5504178361275345  0.6411744872699074  0.782193415530876  1.0000
  H   H152      1.0  0.4495821641294745  0.3588255122069615  0.28219341553135624  1.0000
  C   C1        1.0  0.41377900440643006  0.12889602838229322  0.1417305228928809  1.0000
  C   C2        1.0  0.5862209950704389  0.8711039718747157  0.6417305228924007  1.0000
  C   C3        1.0  0.37110397174621124  0.9137790045349345  0.39173052289264076  1.0000
  C   C4        1.0  0.6288960277306577  0.08622099572207445  0.8917305228921605  1.0000
  C   C5        1.0  0.08622099572207445  0.6288960277306577  0.10826947710687895  1.0000
  C   C6        1.0  0.9137790045349345  0.37110397174621124  0.6082694771063987  1.0000
  C   C7        1.0  0.12889602838229322  0.41377900440643006  0.8582694771061585  1.0000
  C   C8        1.0  0.8711039718747157  0.5862209950704389  0.35826947710663887  1.0000
  C   C9        1.0  0.3427561048906694  0.0469062501305391  0.10242902616455485  1.0000
  C   C10       1.0  0.6572438953663396  0.9530937501264699  0.6024290261640746  1.0000
  C   C11       1.0  0.45309374999796537  0.8427561042390339  0.3524290261643147  1.0000
  C   C12       1.0  0.5469062502590436  0.15724389523783508  0.8524290261638345  1.0000
  C   C13       1.0  0.15724389523783508  0.5469062502590436  0.14757097383520504  1.0000
  C   C14       1.0  0.8427561042390339  0.45309374999796537  0.6475709738347247  1.0000
  C   C15       1.0  0.0469062501305391  0.3427561048906694  0.8975709738344847  1.0000
  C   C16       1.0  0.9530937501264699  0.6572438953663396  0.3975709738349649  1.0000
  C   C17       1.0  0.2174746096570421  0.914182827645648  0.14328895546761375  1.0000
  C   C18       1.0  0.7825253905999668  0.08581717183122099  0.6432889554671335  1.0000
  C   C19       1.0  0.5858171719597255  0.7174746097855466  0.39328895546737364  1.0000
  C   C20       1.0  0.4141828282972835  0.28252539047146236  0.8932889554668934  1.0000
  C   C21       1.0  0.28252539047146236  0.4141828282972835  0.10671104453214612  1.0000
  C   C22       1.0  0.7174746097855466  0.5858171719597255  0.6067110445316658  1.0000
  C   C23       1.0  0.914182827645648  0.2174746096570421  0.8567110445314258  1.0000
  C   C24       1.0  0.08581717183122099  0.7825253905999668  0.356711044531906  1.0000
  C   C25       1.0  0.16351588104863726  0.991902549155003  0.08333793645080484  1.0000
  C   C26       1.0  0.8364841192083717  0.008097451102006025  0.5833379364503246  1.0000
  C   C27       1.0  0.5080974512305105  0.6635158803970017  0.3333379364505647  1.0000
  C   C28       1.0  0.49190254902649844  0.33648411907986725  0.8333379364500844  1.0000
  C   C29       1.0  0.33648411907986725  0.49190254902649844  0.16666206354895502  1.0000
  C   C30       1.0  0.6635158803970017  0.5080974512305105  0.6666620635484748  1.0000
  C   C31       1.0  0.991902549155003  0.16351588104863726  0.9166620635482347  1.0000
  C   C32       1.0  0.008097451102006025  0.8364841192083717  0.4166620635487149  1.0000
  C   C33       1.0  0.2344231872141134  0.08831054543935278  0.07950514587711742  1.0000
  C   C34       1.0  0.7655768122627555  0.9116894548176562  0.5795051458766372  1.0000
  C   C35       1.0  0.4116894546891517  0.7344231873426178  0.3295051458768773  1.0000
  C   C36       1.0  0.5883105455678572  0.26557681213425105  0.8295051458763971  1.0000
  C   C37       1.0  0.26557681213425105  0.5883105455678572  0.17049485412264245  1.0000
  C   C38       1.0  0.7344231873426178  0.4116894546891517  0.6704948541221621  1.0000
  C   C39       1.0  0.08831054543935278  0.2344231872141134  0.9204948541219221  1.0000
  C   C40       1.0  0.9116894548176562  0.7655768122627555  0.42049485412240234  1.0000
  C   C41       1.0  0.6373629344340291  0.3563168767191536  0.09665927176982468  1.0000
  C   C42       1.0  0.3626370658229798  0.6436831235378555  0.5966592717693444  1.0000
  C   C43       1.0  0.14368312340935094  0.13736293430552468  0.34665927176958455  1.0000
  C   C44       1.0  0.856316876847658  0.8626370659514843  0.8466592717691044  1.0000
  C   C45       1.0  0.8626370659514843  0.856316876847658  0.15334072822993522  1.0000
  C   C46       1.0  0.13736293430552468  0.14368312340935094  0.6533407282294549  1.0000
  C   C47       1.0  0.3563168767191536  0.6373629344340291  0.9033407282292149  1.0000
  C   C48       1.0  0.6436831235378555  0.3626370658229798  0.4033407282296951  1.0000
  C   C49       1.0  0.7108308022086263  0.4362162143336994  0.1351271846059331  1.0000
  C   C50       1.0  0.28916919804838276  0.5637837859233096  0.6351271846054529  1.0000
  C   C51       1.0  0.0637837857948051  0.21083080208012173  0.385127184605693  1.0000
  C   C52       1.0  0.9362162136820638  0.7891691981768872  0.8851271846052127  1.0000
  C   C53       1.0  0.7891691981768872  0.9362162136820638  0.11487281539382675  1.0000
  C   C54       1.0  0.21083080208012173  0.0637837857948051  0.6148728153933465  1.0000
  C   C55       1.0  0.4362162143336994  0.7108308022086263  0.8648728153931063  1.0000
  C   C56       1.0  0.5637837859233096  0.28916919804838276  0.3648728153935866  1.0000
  C   C57       1.0  0.8292490372511624  0.5714968433023921  0.09158888106492089  1.0000
  C   C58       1.0  0.17075096222570654  0.4285031569546168  0.5915888810644406  1.0000
  C   C59       1.0  0.9285031570831214  0.3292490379027979  0.3415888810646807  1.0000
  C   C60       1.0  0.07149684317388764  0.6707509623542109  0.8415888810642005  1.0000
  C   C61       1.0  0.6707509623542109  0.07149684317388764  0.15841111893483897  1.0000
  C   C62       1.0  0.3292490379027979  0.9285031570831214  0.6584111189343588  1.0000
  C   C63       1.0  0.5714968433023921  0.8292490372511624  0.9084111189341185  1.0000
  C   C64       1.0  0.4285031569546168  0.17075096222570654  0.4084111189345988  1.0000
  C   C65       1.0  0.7271790261155792  0.6262301472156288  0.11355452385601765  1.0000
  C   C66       1.0  0.27282097414142975  0.3737698530413803  0.6135545238555373  1.0000
  C   C67       1.0  0.8737698531698848  0.2271790259870747  0.3635545238557775  1.0000
  C   C68       1.0  0.12623014708712418  0.7728209742699341  0.8635545238552973  1.0000
  C   C69       1.0  0.7728209742699341  0.12623014708712418  0.13644547614374222  1.0000
  C   C70       1.0  0.2271790259870747  0.8737698531698848  0.636445476143262  1.0000
  C   C71       1.0  0.6262301472156288  0.7271790261155792  0.8864454761430218  1.0000
  C   C72       1.0  0.3737698530413803  0.27282097414142975  0.38644547614350205  1.0000
  C   C73       1.0  0.6547747599292274  0.541494726930771  0.14993549242077464  1.0000
  C   C74       1.0  0.34522523954764145  0.45850527332623786  0.6499354924202945  1.0000
  C   C75       1.0  0.9585052734547422  0.15477476058086304  0.39993549242053456  1.0000
  C   C76       1.0  0.04149472680226666  0.8452252396761459  0.8999354924200542  1.0000
  C   C77       1.0  0.8452252396761459  0.04149472680226666  0.10006450757898522  1.0000
  C   C78       1.0  0.15477476058086304  0.9585052734547422  0.600064507578505  1.0000
  C   C79       1.0  0.541494726930771  0.6547747599292274  0.8500645075782648  1.0000
  C   C80       1.0  0.45850527332623786  0.34522523954764145  0.3500645075787451  1.0000
  N   N1        1.0  0.32238691593603064  0.9604379565127208  0.16336058323240588  1.0000
  N   N2        1.0  0.6776130843209783  0.0395620429641481  0.6633605832319256  1.0000
  N   N3        1.0  0.5395620430926525  0.822386915284395  0.41336058323216573  1.0000
  N   N4        1.0  0.46043795638421636  0.17761308419247382  0.9133605832316856  1.0000
  N   N5        1.0  0.17761308419247382  0.46043795638421636  0.08663941676735397  1.0000
  N   N6        1.0  0.822386915284395  0.5395620430926525  0.5866394167668737  1.0000
  N   N7        1.0  0.9604379565127208  0.32238691593603064  0.8366394167666336  1.0000
  N   N8        1.0  0.0395620429641481  0.6776130843209783  0.33663941676711384  1.0000
  N   N9        1.0  0.799270105861502  0.4598553953880761  0.07663081673521911  1.0000
  N   N10       1.0  0.20072989361536694  0.5401446040887927  0.5766308167347388  1.0000
  N   N11       1.0  0.04014460396028826  0.2992701057329975  0.32663081673497896  1.0000
  N   N12       1.0  0.9598553955165806  0.7007298937438713  0.8266308167344988  1.0000
  N   N13       1.0  0.7007298937438713  0.9598553955165806  0.17336918326454076  1.0000
  N   N14       1.0  0.2992701057329975  0.04014460396028826  0.6733691832640605  1.0000
  N   N15       1.0  0.4598553953880761  0.799270105861502  0.9233691832638203  1.0000
  N   N16       1.0  0.5401446040887927  0.20072989361536694  0.4233691832643006  1.0000
  O   O1        1.0  0.436972375212938  0.12409541477907123  0.2179811788402217  1.0000
  O   O2        1.0  0.5630276250440709  0.8759045846977976  0.7179811788397414  1.0000
  O   O3        1.0  0.3759045845692932  0.9369723753414425  0.4679811788399815  1.0000
  O   O4        1.0  0.6240954149075757  0.06302762491556645  0.9679811788395013  1.0000
  O   O5        1.0  0.06302762491556645  0.6240954149075757  0.03201882115953818  1.0000
  O   O6        1.0  0.9369723753414425  0.3759045845692932  0.532018821159058  1.0000
  O   O7        1.0  0.12409541477907123  0.436972375212938  0.7820188211588177  1.0000
  O   O8        1.0  0.8759045846977976  0.5630276250440709  0.28201882115929805  1.0000
  O   O9        1.0  0.44295560622906177  0.2006737929646798  0.08896723207988767  1.0000
  O   O10       1.0  0.5570443932478072  0.7993262065121891  0.5889672320794075  1.0000
  O   O11       1.0  0.2993262071638247  0.9429556063575663  0.3389672320796475  1.0000
  O   O12       1.0  0.7006737930931843  0.05704439311930264  0.8389672320791672  1.0000
  O   O13       1.0  0.05704439311930264  0.7006737930931843  0.1610327679198722  1.0000
  O   O14       1.0  0.9429556063575663  0.2993262071638247  0.661032767919392  1.0000
  O   O15       1.0  0.2006737929646798  0.44295560622906177  0.9110327679191518  1.0000
  O   O16       1.0  0.7993262065121891  0.5570443932478072  0.41103276791963206  1.0000
  O   O17       1.0  0.5699604628051052  0.32154371483210925  0.15226882325075203  1.0000
  O   O18       1.0  0.43003953745190376  0.6784562854248997  0.6522688232502718  1.0000
  O   O19       1.0  0.1784562852963952  0.06996046267660068  0.4022688232505119  1.0000
  O   O20       1.0  0.8215437149606137  0.9300395375804082  0.9022688232500317  1.0000
  O   O21       1.0  0.9300395375804082  0.8215437149606137  0.09773117674900784  1.0000
  O   O22       1.0  0.06996046267660068  0.1784562852963952  0.5977311767485276  1.0000
  O   O23       1.0  0.32154371483210925  0.5699604628051052  0.8477311767482875  1.0000
  O   O24       1.0  0.6784562854248997  0.43003953745190376  0.34773117674876775  1.0000
  O   O25       1.0  0.6408493919917103  0.332915126606256  0.020771501951530668  1.0000
  O   O26       1.0  0.3591506074851585  0.6670848728706129  0.5207715019510504  1.0000
  O   O27       1.0  0.16708487274210845  0.14084939264334598  0.2707715019512905  1.0000
  O   O28       1.0  0.8329151267347604  0.859150607613663  0.7707715019508103  1.0000
  O   O29       1.0  0.859150607613663  0.8329151267347604  0.2292284980482292  1.0000
  O   O30       1.0  0.14084939264334598  0.16708487274210845  0.7292284980477489  1.0000
  O   O31       1.0  0.332915126606256  0.6408493919917103  0.9792284980475088  1.0000
  O   O32       1.0  0.6670848728706129  0.3591506074851585  0.47922849804798906  1.0000
  Cl  Cl1       1.0  0.9896126329497246  0.31562930230966607  0.1246561585053279  1.0000
  Cl  Cl2       1.0  0.01038736730728439  0.684370697947343  0.6246561585048477  1.0000
  Cl  Cl3       1.0  0.18437069781883844  0.48961263282122003  0.37465615850508777  1.0000
  Cl  Cl4       1.0  0.8156293024381706  0.5103873674357889  0.8746561585046075  1.0000
  Cl  Cl5       1.0  0.5103873674357889  0.8156293024381706  0.12534384149443198  1.0000
  Cl  Cl6       1.0  0.48961263282122003  0.18437069781883844  0.6253438414939517  1.0000
  Cl  Cl7       1.0  0.31562930230966607  0.9896126329497246  0.8753438414937116  1.0000
  Cl  Cl8       1.0  0.684370697947343  0.01038736730728439  0.37534384149419187  1.0000
