data_image0
_chemical_formula_structural       H54C24N4O8Br2
_chemical_formula_sum              "H54 C24 N4 O8 Br2"
_cell_length_a       11.413926951413902
_cell_length_b       5.146115862188925
_cell_length_c       14.884814143273454
_cell_angle_alpha    90.0
_cell_angle_beta     106.72390983499206
_cell_angle_gamma    90.0

_space_group_name_H-M_alt    "P 1"
_space_group_IT_number       1

loop_
  _space_group_symop_operation_xyz
  'x, y, z'

loop_
  _atom_site_type_symbol
  _atom_site_label
  _atom_site_symmetry_multiplicity
  _atom_site_fract_x
  _atom_site_fract_y
  _atom_site_fract_z
  _atom_site_occupancy
  H   H1        1.0  0.7521998800846846  0.9099739561650941  0.16459355346207  1.0000
  H   H2        1.0  0.24780011997608867  0.40997395637777145  0.8354064468863975  1.0000
  H   H3        1.0  0.8834456110119612  0.270654767070782  0.16985939150350315  1.0000
  H   H4        1.0  0.11655438904881217  0.7706547668581046  0.8301406088449644  1.0000
  H   H5        1.0  0.9487225970441953  0.3157948700573463  0.02929742023741576  1.0000
  H   H6        1.0  0.05127740301657792  0.8157948698446689  0.9707025801110518  1.0000
  H   H7        1.0  0.05853960265910046  0.16104595819330864  0.11241101405806538  1.0000
  H   H8        1.0  0.9414603971278912  0.6610459579806313  0.8875889855889557  1.0000
  H   H9        1.0  0.07555611077359156  0.47635712363407423  0.08995259344930807  1.0000
  H   H10       1.0  0.9244438892871818  0.9763571234213969  0.9100474068991595  1.0000
  H   H11       1.0  0.12524907276666464  0.5551636411825343  0.2492384372965239  1.0000
  H   H12       1.0  0.8747509270203271  0.0551636413952116  0.7507615623504974  1.0000
  H   H13       1.0  0.005000709968725792  0.6165178952365229  0.2986534188645933  1.0000
  H   H14       1.0  0.9949992898182659  0.11651789544920022  0.7013465807824278  1.0000
  H   H15       1.0  0.10007014831886818  0.06741012431314446  0.2856655604923317  1.0000
  H   H16       1.0  0.8999298514681235  0.5674101241004671  0.7143344391546895  1.0000
  H   H17       1.0  0.9500667706391844  0.30888539872941634  0.406313745140145  1.0000
  H   H18       1.0  0.049933229147807255  0.808885398516739  0.5936862545068762  1.0000
  H   H19       1.0  0.9970300463122339  0.9790304639307084  0.41056667587247964  1.0000
  H   H20       1.0  0.0029699537485393837  0.4790304641433857  0.5894333244759877  1.0000
  H   H21       1.0  0.8884326981059453  0.10206981033197665  0.3090874548195578  1.0000
  H   H22       1.0  0.11156730195482795  0.6020698101192993  0.6909125455289097  1.0000
  H   H23       1.0  0.17498354696669133  0.45994938578650757  0.44770267077894493  1.0000
  H   H24       1.0  0.8250164528203004  0.9599493855738302  0.5522973288680763  1.0000
  H   H25       1.0  0.2690710057922748  0.3471870140211017  0.3792236078691169  1.0000
  H   H26       1.0  0.730928993994717  0.8471870138084243  0.6207763917779043  1.0000
  H   H27       1.0  0.22054044479120447  0.12928300058075437  0.45379541306472115  1.0000
  H   H28       1.0  0.7794595552695688  0.629283000368077  0.5462045872837464  1.0000
  H   H29       1.0  0.5431137508657379  0.5147550950928725  0.1432871008198478  1.0000
  H   H30       1.0  0.4568862489212538  0.014755095305549961  0.8567128988271733  1.0000
  H   H31       1.0  0.40066475833479365  0.35257311311841394  0.005638807497502699  1.0000
  H   H32       1.0  0.5993352417259797  0.8525731129057366  0.9943611928509649  1.0000
  H   H33       1.0  0.3265897098444985  0.49423356335357754  0.07794399204297055  1.0000
  H   H34       1.0  0.6734102902162747  0.9942335631409002  0.9220560083054969  1.0000
  H   H35       1.0  0.3295355978450023  0.1672639410092628  0.06995347533089147  1.0000
  H   H36       1.0  0.6704644019419894  0.6672639407965855  0.9300465243161297  1.0000
  H   H37       1.0  0.40882551804270706  0.4575735434371674  0.24757356644232478  1.0000
  H   H38       1.0  0.5911744820180663  0.9575735432244901  0.7524264339061428  1.0000
  H   H39       1.0  0.4209639963995461  0.11561379998679823  0.24162131994569006  1.0000
  H   H40       1.0  0.5790360033874455  0.6156137997741209  0.7583786797013311  1.0000
  H   H41       1.0  0.6483833691089842  0.15440227955964153  0.32073165731098374  1.0000
  H   H42       1.0  0.3516166309517891  0.6544022793469642  0.6792683430374838  1.0000
  H   H43       1.0  0.6863733055061061  0.6050872567559157  0.27695364301158915  1.0000
  H   H44       1.0  0.3136266942808857  0.105087256968593  0.723046356635432  1.0000
  H   H45       1.0  0.7293963816412445  0.5738603966728147  0.3999733383955  1.0000
  H   H46       1.0  0.27060361841952874  0.07386039688549204  0.6000266619529675  1.0000
  H   H47       1.0  0.589063774143455  0.7280032281291187  0.34206560547547993  1.0000
  H   H48       1.0  0.4109362259173183  0.22800322834179604  0.6579343948729878  1.0000
  H   H49       1.0  0.6262172310962012  0.24736704032515355  0.4792852049092796  1.0000
  H   H50       1.0  0.3737827686907906  0.7473670401124761  0.5207147947377416  1.0000
  H   H51       1.0  0.499427041226829  0.0623274560055416  0.4124164409305738  1.0000
  H   H52       1.0  0.5005729585601627  0.5623274557928643  0.5875835587164474  1.0000
  H   H53       1.0  0.4834593961620553  0.4011656024242483  0.42821756761848034  1.0000
  H   H54       1.0  0.516540603898718  0.901165602211571  0.5717824327299871  1.0000
  C   C1        1.0  0.8769715482764955  0.6686128668965601  0.13046289121808333  1.0000
  C   C2        1.0  0.12302845178427776  0.16861286710923745  0.8695371091303842  1.0000
  C   C3        1.0  0.9498030413082496  0.42130956979227147  0.16596483572975945  1.0000
  C   C4        1.0  0.05019695847874214  0.9213095715228072  0.8340351639172617  1.0000
  C   C5        1.0  0.043165491356347147  0.4684756182256927  0.26187150672349896  1.0000
  C   C6        1.0  0.9568345084306445  0.9684756199562284  0.7381284929235221  1.0000
  C   C7        1.0  0.07766653828214971  0.23051533268343855  0.32611376086967925  1.0000
  C   C8        1.0  0.9223334617786236  0.7305153324707612  0.6738862394787883  1.0000
  C   C9        1.0  0.9723021546266406  0.14972725461961486  0.36456184303704015  1.0000
  C   C10       1.0  0.0276978451603511  0.6497272544069375  0.6354381566099809  1.0000
  C   C11       1.0  0.19210805767735362  0.2948710601619742  0.4060178979983554  1.0000
  C   C12       1.0  0.8078919423834197  0.7948710599492969  0.5939821023501122  1.0000
  C   C13       1.0  0.5751849391039984  0.10936285444622945  0.12547547397765355  1.0000
  C   C14       1.0  0.4248150609567748  0.6093628542335521  0.8745245263708139  1.0000
  C   C15       1.0  0.4973165725013349  0.32919959545555333  0.14699520866848526  1.0000
  C   C16       1.0  0.5026834272856568  0.8291995952428759  0.853004790978536  1.0000
  C   C17       1.0  0.4714833441299943  0.29849891668521594  0.24217717235836803  1.0000
  C   C18       1.0  0.528516655930779  0.7984989164725386  0.7578228279900996  1.0000
  C   C19       1.0  0.5845002593469216  0.3075042949629386  0.32837472254112654  1.0000
  C   C20       1.0  0.41549974044007  0.8075042947502612  0.6716252771058946  1.0000
  C   C21       1.0  0.6508279285112453  0.5680648159282891  0.33667931235177034  1.0000
  C   C22       1.0  0.34917207154952806  0.0680648161409664  0.6633206879966972  1.0000
  C   C23       1.0  0.5462214361148747  0.2506375030295904  0.41680812495369857  1.0000
  C   C24       1.0  0.453778563672117  0.7506375028169131  0.5831918746933226  1.0000
  N   N1        1.0  0.011788408777120039  0.33626437032141415  0.09541279649792433  1.0000
  N   N2        1.0  0.9882115912836533  0.8362643701087369  0.9045872038505433  1.0000
  N   N3        1.0  0.3796138221387668  0.3359746430708182  0.07003135146320931  1.0000
  N   N4        1.0  0.6203861776482249  0.8359746428581409  0.9299686481838119  1.0000
  O   O1        1.0  0.8891751890850831  0.7946563426693929  0.06269029512131022  1.0000
  O   O2        1.0  0.11082481070190879  0.294656340938857  0.9373097045257109  1.0000
  O   O3        1.0  0.8052036149732307  0.7255003112992358  0.1815155269034399  1.0000
  O   O4        1.0  0.19479638481376094  0.2255003095687  0.8184844727435813  1.0000
  O   O5        1.0  0.5227610166268801  0.9246397977475838  0.07366067175086953  1.0000
  O   O6        1.0  0.4772389831601116  0.42463979796026113  0.9263393278961516  1.0000
  O   O7        1.0  0.6905886156069706  0.13137670975647764  0.1633912067395207  1.0000
  O   O8        1.0  0.3094113841800212  0.6313767095438002  0.8366087929075005  1.0000
  Br  Br1       1.0  0.21006764100776593  0.8296084181408324  0.11587887384635391  1.0000
  Br  Br2       1.0  0.7899323590530073  0.3296084183535098  0.8841211265021136  1.0000
