data_image0
_chemical_formula_structural       H24C44N16O16F16I4
_chemical_formula_sum              "H24 C44 N16 O16 F16 I4"
_cell_length_a       6.834520948178608
_cell_length_b       15.187860734054281
_cell_length_c       13.438498454966371
_cell_angle_alpha    90.0
_cell_angle_beta     92.53828801877846
_cell_angle_gamma    90.0

_space_group_name_H-M_alt    "P 1"
_space_group_IT_number       1

loop_
  _space_group_symop_operation_xyz
  'x, y, z'

loop_
  _atom_site_type_symbol
  _atom_site_label
  _atom_site_symmetry_multiplicity
  _atom_site_fract_x
  _atom_site_fract_y
  _atom_site_fract_z
  _atom_site_occupancy
  H   H1        1.0  0.5704935357336852  0.48016573483902847  0.8712480624063931  1.0000
  H   H2        1.0  0.9295064650125405  0.9801657350347677  0.6287519375650228  1.0000
  H   H3        1.0  0.4295064648083763  0.5198342648940294  0.12875193807112473  1.0000
  H   H4        1.0  0.07049353546265448  0.019834265356710727  0.3712480621676342  1.0000
  H   H5        1.0  0.972501361491688  0.4780667348180104  0.8756366806561198  1.0000
  H   H6        1.0  0.5274986392545379  0.9780667350137495  0.6243633193152962  1.0000
  H   H7        1.0  0.027498639050373544  0.5219332649150474  0.1243633198213981  1.0000
  H   H8        1.0  0.4725013612206572  0.021933265377728835  0.3756366804173608  1.0000
  H   H9        1.0  0.5892232005981985  0.6349359563442476  0.9073604513102617  1.0000
  H   H10       1.0  0.9107767986849572  0.1349359568069289  0.5926395486621743  1.0000
  H   H11       1.0  0.4107767984139264  0.36506404338881027  0.09263954842341537  1.0000
  H   H12       1.0  0.0892232017902379  0.8650640435845495  0.4073604510704827  1.0000
  H   H13       1.0  0.06524503449497648  0.3204167601490075  0.8440385262924954  1.0000
  H   H14       1.0  0.4347549645112838  0.8204167603447466  0.6559614732467778  1.0000
  H   H15       1.0  0.9347549645171483  0.6795832402424709  0.1559614734411815  1.0000
  H   H16       1.0  0.5652450345008411  0.17958324004673165  0.34403852648689925  1.0000
  H   H17       1.0  0.4670586090777681  0.3252309239921126  0.8408041446783687  1.0000
  H   H18       1.0  0.03294139145842882  0.8252309235294313  0.6591958556047454  1.0000
  H   H19       1.0  0.5329413914642934  0.6747690763993658  0.15919585579914908  1.0000
  H   H20       1.0  0.9670586090167662  0.17476907620362656  0.34080414412791155  1.0000
  H   H21       1.0  0.07464734428293536  0.16595107132821252  0.812077312864695  1.0000
  H   H22       1.0  0.42535265625326163  0.6659510715239516  0.6879226874184193  1.0000
  H   H23       1.0  0.9253526561922597  0.8340489284048452  0.187922686867962  1.0000
  H   H24       1.0  0.5746473442887999  0.3340489288675267  0.3120773130590986  1.0000
  C   C1        1.0  0.17590828825104327  0.5138532935386414  0.5524382596094107  1.0000
  C   C2        1.0  0.32409171228515365  0.013853294001322783  0.9475617406737035  1.0000
  C   C3        1.0  0.8240917122910182  0.4861467061944164  0.44756174086810707  1.0000
  C   C4        1.0  0.6759082881900413  0.9861467063901556  0.05243825905895352  1.0000
  C   C5        1.0  0.12555942016325067  0.5695923449313005  0.47292461854991213  1.0000
  C   C6        1.0  0.3744405801077801  0.06959234473556127  0.027075381688846798  1.0000
  C   C7        1.0  0.8744405803788109  0.43040765480175736  0.5270753819276056  1.0000
  C   C8        1.0  0.6255594204342814  0.9304076549974966  0.972924618788671  1.0000
  C   C9        1.0  0.947977971765122  0.5540744135960763  0.4207329946447207  1.0000
  C   C10       1.0  0.5520220272528675  0.0540744134003372  0.07926700528336002  1.0000
  C   C11       1.0  0.052022027313869366  0.445925586795402  0.5792670058338172  1.0000
  C   C12       1.0  0.44797797175925735  0.9459255863327206  0.920732994450317  1.0000
  C   C13       1.0  0.27133617638892443  0.46845847776619276  0.8729891282162041  1.0000
  C   C14       1.0  0.22866382268420238  0.968458477961932  0.6270108720679302  1.0000
  C   C15       1.0  0.728663822690067  0.531541521966865  0.12701087226233382  1.0000
  C   C16       1.0  0.771336176394789  0.03154152177112581  0.3729891284106079  1.0000
  C   C17       1.0  0.08722738044900716  0.6041204137082395  0.9039804416185053  1.0000
  C   C18       1.0  0.4127726200203233  0.10412041351250043  0.5960195579197479  1.0000
  C   C19       1.0  0.912772620026188  0.3958795860248182  0.0960195581141517  1.0000
  C   C20       1.0  0.5872273804548718  0.8958795862205573  0.40398044181290893  1.0000
  C   C21       1.0  0.27503622581087855  0.6481287287503527  0.9118944615499661  1.0000
  C   C22       1.0  0.22496377465845196  0.14812872855461354  0.5881055379882871  1.0000
  C   C23       1.0  0.7249637746643166  0.35187127164112564  0.08810553818269079  1.0000
  C   C24       1.0  0.7750362258167431  0.8518712718368647  0.41189446174436983  1.0000
  C   C25       1.0  0.4451237777534755  0.6041923408887115  0.9004193859937888  1.0000
  C   C26       1.0  0.054876222715854926  0.1041923406929723  0.5995806135444645  1.0000
  C   C27       1.0  0.5548762227217195  0.3958076588443463  0.09958061373886819  1.0000
  C   C28       1.0  0.9451237777593401  0.8958076590400855  0.40041938618819245  1.0000
  C   C29       1.0  0.7666404700717239  0.3332608507958623  0.8440093538025176  1.0000
  C   C30       1.0  0.7333595292114319  0.833260850333181  0.6559906461699184  1.0000
  C   C31       1.0  0.23335953040347124  0.6667391495956161  0.15599064593013934  1.0000
  C   C32       1.0  0.2666404698006931  0.16673914939987683  0.34400935356375867  1.0000
  C   C33       1.0  0.5727663970598336  0.19819799856674414  0.8135922468324128  1.0000
  C   C34       1.0  0.9272336022233221  0.6981979987624832  0.6864077531400232  1.0000
  C   C35       1.0  0.4272336020191578  0.8018020018247343  0.1864077536461251  1.0000
  C   C36       1.0  0.07276639825187296  0.30180200162899506  0.31359224659263385  1.0000
  C   C37       1.0  0.7590340051923368  0.15356968442371183  0.8063492864609055  1.0000
  C   C38       1.0  0.740965995553889  0.6535696846194511  0.6936507135105104  1.0000
  C   C39       1.0  0.24096599534972465  0.846430315309346  0.1936507140166123  1.0000
  C   C40       1.0  0.2590340049213061  0.3464303151136068  0.30634928622214663  1.0000
  C   C41       1.0  0.9320008161973082  0.19719476774531347  0.816876515382315  1.0000
  C   C42       1.0  0.5679991845489176  0.6971947679410527  0.683123484589101  1.0000
  C   C43       1.0  0.06799918434475327  0.8028052319877443  0.18312348509520285  1.0000
  C   C44       1.0  0.43200081592627754  0.3028052324504257  0.316876515143556  1.0000
  N   N1        1.0  0.44120390921814057  0.5156758609485422  0.8801623379965224  1.0000
  N   N2        1.0  0.058796091318056354  0.015675861411223624  0.6198376622865918  1.0000
  N   N3        1.0  0.5587960913239209  0.4843241387845155  0.11983766248099545  1.0000
  N   N4        1.0  0.9412039092240052  0.9843241389802547  0.38016233819092604  1.0000
  N   N5        1.0  0.10224381861230122  0.5146262536154794  0.8840770861194011  1.0000
  N   N6        1.0  0.3977561804608256  0.014626253419740243  0.6159229141647333  1.0000
  N   N7        1.0  0.8977561804666901  0.48537374611757833  0.115922914359137  1.0000
  N   N8        1.0  0.6022438185512995  0.9853737463133175  0.3840770855689438  1.0000
  N   N9        1.0  0.9337467805634909  0.28589996089863284  0.8352415183265129  1.0000
  N   N10       1.0  0.5662532187196648  0.785899961094372  0.664758481645923  1.0000
  N   N11       1.0  0.06625321844863402  0.714100038834425  0.16475848140716415  1.0000
  N   N12       1.0  0.43374678035932657  0.21410003863868576  0.3352415188326149  1.0000
  N   N13       1.0  0.5948721649583525  0.2880865973566256  0.8333510585243932  1.0000
  N   N14       1.0  0.9051278358547398  0.7880865975523649  0.6666489421918835  1.0000
  N   N15       1.0  0.405127835583709  0.7119134023764322  0.16664894195312463  1.0000
  N   N16       1.0  0.0948721646873217  0.21191340283911358  0.33335105828563427  1.0000
  O   O1        1.0  0.26992847266243836  0.38670177339927464  0.8583518177389828  1.0000
  O   O2        1.0  0.23007152634382202  0.8867017729365932  0.6416481818002907  1.0000
  O   O3        1.0  0.7300715263496866  0.6132982269922037  0.1416481819946944  1.0000
  O   O4        1.0  0.7699284726683028  0.11329822679646451  0.3583518179333864  1.0000
  O   O5        1.0  0.9253505784231769  0.6389490646461519  0.9155173847560925  1.0000
  O   O6        1.0  0.5746494223230489  0.13894906445041266  0.5844826152153234  1.0000
  O   O7        1.0  0.0746494221188846  0.36105093508690594  0.08448261572142542  1.0000
  O   O8        1.0  0.42535057815214616  0.8610509352826451  0.41551738451733344  1.0000
  O   O9        1.0  0.7700144003467928  0.4148715405239296  0.8623314688236335  1.0000
  O   O10       1.0  0.7299856003994329  0.9148715407196688  0.6376685311477823  1.0000
  O   O11       1.0  0.22998560019526873  0.5851284598675487  0.13766853165388426  1.0000
  O   O12       1.0  0.27001440007576205  0.08512845967180958  0.3623314685848747  1.0000
  O   O13       1.0  0.4083713209121811  0.1642674471201853  0.8039713145154618  1.0000
  O   O14       1.0  0.09162867955714939  0.6642674473159245  0.6960286850227915  1.0000
  O   O15       1.0  0.591628679563014  0.8357325526128725  0.19602868521719516  1.0000
  O   O16       1.0  0.9083713209180456  0.3357325530755539  0.30397131470986544  1.0000
  F   F1        1.0  0.3464000794362346  0.5251596923137479  0.6060097075137242  1.0000
  F   F2        1.0  0.15359992109996234  0.02515969277642932  0.8939902927693899  1.0000
  F   F3        1.0  0.6535999210389605  0.4748403074193099  0.3939902922189326  1.0000
  F   F4        1.0  0.8464000794420992  0.974840307615049  0.10600970770812795  1.0000
  F   F5        1.0  0.8929360391060114  0.6047292749667094  0.3415187519218626  1.0000
  F   F6        1.0  0.6070639599119783  0.10472927542939078  0.15848124800621813  1.0000
  F   F7        1.0  0.10706395990611361  0.3952707247663484  0.6584812478118144  1.0000
  F   F8        1.0  0.39293603916701314  0.8952707249620876  0.8415187524723197  1.0000
  F   F9        1.0  0.2733291922611022  0.7350033053022399  0.9339135807673189  1.0000
  F   F10       1.0  0.2266708068120246  0.23500330510650072  0.5660864195168154  1.0000
  F   F11       1.0  0.7266708082809593  0.26499669508923845  0.06608641971019895  1.0000
  F   F12       1.0  0.7733291922669667  0.7649966946265571  0.4339135809617226  1.0000
  F   F13       1.0  0.7544183597007698  0.06591890639049508  0.7880764256823806  1.0000
  F   F14       1.0  0.7455816395823859  0.5659189065862342  0.7119235742900556  1.0000
  F   F15       1.0  0.2455816408412917  0.9340810933425627  0.21192357479513735  1.0000
  F   F16       1.0  0.25441835942973906  0.4340810938052441  0.28807642544362155  1.0000
  I   I1        1.0  0.2982527433523857  0.6779432541749036  0.43929870532246246  1.0000
  I   I2        1.0  0.20174725685177852  0.17794325397916444  0.06070129417143559  1.0000
  I   I3        1.0  0.7017472556597392  0.3220567462165747  0.5607012944112146  1.0000
  I   I4        1.0  0.7982527436234166  0.8220567457538933  0.9392987055612213  1.0000
