data_image0
_chemical_formula_structural       H12C16N4O4F4I2
_chemical_formula_sum              "H12 C16 N4 O4 F4 I2"
_cell_length_a       4.578423106470036
_cell_length_b       5.719520065442212
_cell_length_c       18.326800818279352
_cell_angle_alpha    86.96466789775913
_cell_angle_beta     87.06199695598248
_cell_angle_gamma    84.56566389702192

_space_group_name_H-M_alt    "P 1"
_space_group_IT_number       1

loop_
  _space_group_symop_operation_xyz
  'x, y, z'

loop_
  _atom_site_type_symbol
  _atom_site_label
  _atom_site_symmetry_multiplicity
  _atom_site_fract_x
  _atom_site_fract_y
  _atom_site_fract_z
  _atom_site_occupancy
  H   H1        1.0  0.5714786624595465  0.1219468243417789  0.9470740644859997  1.0000
  H   H2        1.0  0.4285213380660132  0.8780531748212694  0.05292593545440287  1.0000
  H   H3        1.0  0.15745328546834775  0.5344298219108938  0.9420257306289599  1.0000
  H   H4        1.0  0.8425467148524234  0.46557017900807574  0.05797426931371632  1.0000
  H   H5        1.0  0.19802528759119992  0.017287711167290085  0.7069287396687154  1.0000
  H   H6        1.0  0.8019747107505097  0.9827122879990478  0.29307126026848435  1.0000
  H   H7        1.0  0.5014911995654632  0.07209809810299375  0.7567663064045416  1.0000
  H   H8        1.0  0.49850880096009653  0.9279019010600544  0.24323369353586105  1.0000
  H   H9        1.0  0.20083243776603557  0.291409249704915  0.7482626621192576  1.0000
  H   H10       1.0  0.7991675625547356  0.7085907512140547  0.25173733782341867  1.0000
  H   H11       1.0  0.7912471674335736  0.29408220330654355  0.8412459962837193  1.0000
  H   H12       1.0  0.20875283309198608  0.7059177958565046  0.15875400365668327  1.0000
  C   C1        1.0  0.8861931348809272  0.5471458614129685  0.5716982563413862  1.0000
  C   C2        1.0  0.11380686564463238  0.45285413775007993  0.42830174359901646  1.0000
  C   C3        1.0  0.8060948926840802  0.35572794140733943  0.5355702131092631  1.0000
  C   C4        1.0  0.1939051078414795  0.6442720577557088  0.4644297868311395  1.0000
  C   C5        1.0  0.918919339337366  0.30906355363719445  0.4652154333747425  1.0000
  C   C6        1.0  0.08108066098340504  0.6909364472817753  0.5347845665679336  1.0000
  C   C7        1.0  0.8418386236491119  0.8118147219025936  0.9518217294887101  1.0000
  C   C8        1.0  0.15816137448780923  0.18818527901966572  0.04817827045076303  1.0000
  C   C9        1.0  0.2272397408594024  0.772140352447784  0.8532183577618143  1.0000
  C   C10       1.0  0.7727602596661574  0.22785964671526412  0.1467816421785884  1.0000
  C   C11       1.0  0.11819601167117746  0.0023701983561469444  0.8232857658947433  1.0000
  C   C12       1.0  0.8818039885354901  0.9976298024704752  0.17671423459492644  1.0000
  C   C13       1.0  0.26183168763774156  0.10230559925872872  0.7553400531644127  1.0000
  C   C14       1.0  0.738168310703968  0.8976943999076091  0.24465994677278707  1.0000
  C   C15       1.0  0.8859840177079137  0.11971692105797622  0.8593645235466272  1.0000
  C   C16       1.0  0.11401598281764602  0.880283078105072  0.14063547639377555  1.0000
  N   N1        1.0  0.7505227521733757  0.026864529144757305  0.921324774219971  1.0000
  N   N2        1.0  0.24947724835218413  0.9731354700182909  0.0786752257204315  1.0000
  N   N3        1.0  0.07869654294028845  0.6946320050498312  0.9174105482833217  1.0000
  N   N4        1.0  0.9213034575852713  0.3053679941132171  0.08258945165708087  1.0000
  O   O1        1.0  0.7177274882020936  0.7272319927329157  0.009040231091176703  1.0000
  O   O2        1.0  0.2822725099348277  0.2727680081893436  0.9909597688482965  1.0000
  O   O3        1.0  0.4401901083334599  0.6445039221457176  0.8278406879513146  1.0000
  O   O4        1.0  0.5598098921920999  0.3554960770173306  0.17215931198908796  1.0000
  F   F1        1.0  0.6164555439922638  0.2113851752600354  0.568497096984475  1.0000
  F   F2        1.0  0.3835444565332959  0.7886148239030129  0.4315029029559275  1.0000
  F   F3        1.0  0.8365020341652549  0.11913206953309699  0.43341296125529  1.0000
  F   F4        1.0  0.16349796636030464  0.8808679296299514  0.5665870386851126  1.0000
  I   I1        1.0  0.7139160746176186  0.6143967560642363  0.6768316451783257  1.0000
  I   I2        1.0  0.2860839259079409  0.3856032430988119  0.323168354762077  1.0000
