data_image0
_chemical_formula_structural       H88C76N24O28
_chemical_formula_sum              "H88 C76 N24 O28"
_cell_length_a       27.280967438084325
_cell_length_b       4.762492688579655
_cell_length_c       18.013721704308505
_cell_angle_alpha    90.0
_cell_angle_beta     124.66787840082921
_cell_angle_gamma    90.0

_space_group_name_H-M_alt    "P 1"
_space_group_IT_number       1

loop_
  _space_group_symop_operation_xyz
  'x, y, z'

loop_
  _atom_site_type_symbol
  _atom_site_label
  _atom_site_symmetry_multiplicity
  _atom_site_fract_x
  _atom_site_fract_y
  _atom_site_fract_z
  _atom_site_occupancy
  H   H1        1.0  0.2058239724911742  0.12917449332262856  0.4967251216367789  1.0000
  H   H2        1.0  0.7941760275983396  0.12917449332262856  0.003274878138622178  1.0000
  H   H3        1.0  0.7058239723559228  0.6291744924218761  0.4967251216554252  1.0000
  H   H4        1.0  0.2941760277383309  0.6291744924218761  0.0032748786791599446  1.0000
  H   H5        1.0  0.7941760275174407  0.870825506975607  0.5032748780579088  1.0000
  H   H6        1.0  0.20582397241027528  0.870825506975607  0.9967251215560656  1.0000
  H   H7        1.0  0.294176027657432  0.37082550787635965  0.5032748785984467  1.0000
  H   H8        1.0  0.7058239722750239  0.37082550787635965  0.996725121574712  1.0000
  H   H9        1.0  0.1564693751505763  0.4334847872733843  0.6412112934099746  1.0000
  H   H10       1.0  0.8435306247771398  0.4334847872733843  0.8587887062039998  1.0000
  H   H11       1.0  0.6564693754609803  0.9334847863726319  0.641211293806627  1.0000
  H   H12       1.0  0.343530624917131  0.9334847863726319  0.8587887067445377  1.0000
  H   H13       1.0  0.8435306248580385  0.5665152130248513  0.3587887062847131  1.0000
  H   H14       1.0  0.15646937523147522  0.5665152130248513  0.14121129349068798  1.0000
  H   H15       1.0  0.34353062455237443  0.0665152118258631  0.35878870644724503  1.0000
  H   H16       1.0  0.6564693750962237  0.0665152118258631  0.14121129350933426  1.0000
  H   H17       1.0  0.11086642300617686  0.11319025461029511  0.4590473839127969  1.0000
  H   H18       1.0  0.8891335770880769  0.11319025461029511  0.040952616421788324  1.0000
  H   H19       1.0  0.6108664233165809  0.6131902558092833  0.4590473843094492  1.0000
  H   H20       1.0  0.38913357677767274  0.6131902558092833  0.040952616025136016  1.0000
  H   H21       1.0  0.8891335770071779  0.8868097456879406  0.5409526163410749  1.0000
  H   H22       1.0  0.11086642292527794  0.8868097456879406  0.9590473838320837  1.0000
  H   H23       1.0  0.3891335766967739  0.38680974448895233  0.5409526159444228  1.0000
  H   H24       1.0  0.610866423235682  0.38680974448895233  0.9590473842287358  1.0000
  H   H25       1.0  0.0986849673500566  0.8192358928667662  0.39039974321134663  1.0000
  H   H26       1.0  0.9013150322985416  0.8192358928667662  0.10960025674523256  1.0000
  H   H27       1.0  0.5986849676604608  0.3192358937675189  0.3903997436079989  1.0000
  H   H28       1.0  0.401315032433793  0.3192358937675189  0.10960025672658638  1.0000
  H   H29       1.0  0.9013150326632983  0.18076410743146934  0.6096002570425253  1.0000
  H   H30       1.0  0.09868496771481317  0.18076410743146934  0.8903997435086393  1.0000
  H   H31       1.0  0.4013150323528941  0.6807641065307168  0.6096002566458731  1.0000
  H   H32       1.0  0.5986849675795617  0.6807641065307168  0.8903997435272853  1.0000
  H   H33       1.0  0.006239194111199663  0.5252379444063816  0.1952360462397171  1.0000
  H   H34       1.0  0.9937608055373985  0.5252379444063816  0.3047639537168621  1.0000
  H   H35       1.0  0.5062391944216037  0.025237943207393476  0.19523604663636934  1.0000
  H   H36       1.0  0.49376080567265  0.025237943207393476  0.3047639536982158  1.0000
  H   H37       1.0  0.9937608059021552  0.47476205589185394  0.8047639540141548  1.0000
  H   H38       1.0  0.006239194475956225  0.47476205589185394  0.6952360465370099  1.0000
  H   H39       1.0  0.49376080559175106  0.9747620570908422  0.8047639536175025  1.0000
  H   H40       1.0  0.5062391943407049  0.9747620570908422  0.6952360465556561  1.0000
  H   H41       1.0  0.014054128208947279  0.33247698286172744  0.08550241416938377  1.0000
  H   H42       1.0  0.9859458718853064  0.33247698286172744  0.41449758616520155  1.0000
  H   H43       1.0  0.514054128068956  0.8324769819609749  0.0855024136288459  1.0000
  H   H44       1.0  0.48594587202055783  0.8324769819609749  0.4144975861465552  1.0000
  H   H45       1.0  0.9859458718044076  0.6675230174365082  0.9144975860844882  1.0000
  H   H46       1.0  0.014054128128048345  0.6675230174365082  0.5855024140886704  1.0000
  H   H47       1.0  0.48594587193965894  0.16752301623752003  0.9144975860658417  1.0000
  H   H48       1.0  0.514054127988057  0.16752301623752003  0.5855024135481326  1.0000
  H   H49       1.0  0.9899903171898476  0.004605258513591767  0.09878430777728947  1.0000
  H   H50       1.0  0.010009682458750639  0.004605258513591767  0.4012156921792899  1.0000
  H   H51       1.0  0.48999031732509907  0.50460525971258  0.09878430775864319  1.0000
  H   H52       1.0  0.5100096827691547  0.50460525971258  0.4012156925759421  1.0000
  H   H53       1.0  0.010009682377851702  0.9953947417846439  0.9012156920985763  1.0000
  H   H54       1.0  0.9899903175546041  0.9953947417846439  0.598784308074582  1.0000
  H   H55       1.0  0.5100096826882557  0.4953947405856557  0.9012156924952287  1.0000
  H   H56       1.0  0.48999031724420006  0.4953947405856557  0.5987843076779298  1.0000
  H   H57       1.0  0.0603603466621525  0.750275910883477  0.07653015897381694  1.0000
  H   H58       1.0  0.9396396534273612  0.750275910883477  0.4234698408015841  1.0000
  H   H59       1.0  0.5603603465269011  0.2502759096844888  0.07653015899246329  1.0000
  H   H60       1.0  0.4396396531216971  0.2502759096844888  0.42346984096411605  1.0000
  H   H61       1.0  0.9396396533464623  0.24972408941475863  0.9234698407208708  1.0000
  H   H62       1.0  0.06036034658125357  0.24972408941475863  0.5765301588931036  1.0000
  H   H63       1.0  0.4396396534864537  0.7497240885140061  0.9234698412614087  1.0000
  H   H64       1.0  0.5603603468916577  0.7497240885140061  0.5765301592897559  1.0000
  H   H65       1.0  0.2405199012472619  0.7427826374374986  0.2838061660843595  1.0000
  H   H66       1.0  0.7594800988469916  0.7427826374374986  0.21619383425022567  1.0000
  H   H67       1.0  0.7405199011072706  0.24278263623851049  0.28380616554382165  1.0000
  H   H68       1.0  0.2594800989822432  0.24278263623851049  0.21619383423157942  1.0000
  H   H69       1.0  0.7594800987660929  0.257217362860737  0.7161938341695124  1.0000
  H   H70       1.0  0.24051990116636301  0.257217362860737  0.7838061660036462  1.0000
  H   H71       1.0  0.25948009890134427  0.7572173640597252  0.7161938341508661  1.0000
  H   H72       1.0  0.7405199010263717  0.7572173640597252  0.7838061654631083  1.0000
  H   H73       1.0  0.22785565802355154  0.1325912859696852  0.36505649684916774  1.0000
  H   H74       1.0  0.7721443420659622  0.1325912859696852  0.1349435029262333  1.0000
  H   H75       1.0  0.7278556578883001  0.6325912871686734  0.3650564968678141  1.0000
  H   H76       1.0  0.27214434176029806  0.6325912871686734  0.13494350308876524  1.0000
  H   H77       1.0  0.7721443419850632  0.8674087143285505  0.63494350284552  1.0000
  H   H78       1.0  0.22785565794265267  0.8674087143285505  0.8650564967684544  1.0000
  H   H79       1.0  0.2721443421250546  0.36740871312956225  0.6349435033860579  1.0000
  H   H80       1.0  0.7278556578074011  0.36740871312956225  0.8650564967871007  1.0000
  H   H81       1.0  0.12613145499245912  0.32558870981961513  0.3001990404726  1.0000
  H   H82       1.0  0.8738685451017946  0.32558870981961513  0.1998009598619852  1.0000
  H   H83       1.0  0.6261314548524678  0.8255887089188626  0.30019903993206215  1.0000
  H   H84       1.0  0.373868545237046  0.8255887089188626  0.19980095984333893  1.0000
  H   H85       1.0  0.8738685450208957  0.6744112904786205  0.6998009597812719  1.0000
  H   H86       1.0  0.1261314549115602  0.6744112904786205  0.8001990403918867  1.0000
  H   H87       1.0  0.3738685451561471  0.17441129137937306  0.6998009597626256  1.0000
  H   H88       1.0  0.6261314547715688  0.17441129137937306  0.8001990398513488  1.0000
  C   C1        1.0  0.21783284856750929  0.715986050367449  0.48308669581802466  1.0000
  C   C2        1.0  0.7821671515220046  0.715986050367449  0.01691330395737639  1.0000
  C   C3        1.0  0.7178328488779134  0.2159860491684607  0.48308669621467704  1.0000
  C   C4        1.0  0.28216715121160046  0.2159860491684607  0.016913303560724083  1.0000
  C   C5        1.0  0.7821671514411056  0.2840139499307867  0.516913303876663  1.0000
  C   C6        1.0  0.2178328484866104  0.2840139499307867  0.9830866957373114  1.0000
  C   C7        1.0  0.2821671511307015  0.784013951129775  0.5169133034800107  1.0000
  C   C8        1.0  0.7178328487970145  0.784013951129775  0.9830866961339638  1.0000
  C   C9        1.0  0.1274396263898755  0.9026117772964016  0.4594555065575371  1.0000
  C   C10       1.0  0.8725603737043782  0.9026117772964016  0.04054449377704814  1.0000
  C   C11       1.0  0.627439626254624  0.4026117781971541  0.45945550657618334  1.0000
  C   C12       1.0  0.3725603733939742  0.4026117781971541  0.04054449338039589  1.0000
  C   C13       1.0  0.8725603736234794  0.09738822300183413  0.5405444936963348  1.0000
  C   C14       1.0  0.12743962630897657  0.09738822300183413  0.9594555064768238  1.0000
  C   C15       1.0  0.3725603737587307  0.5973882221010816  0.5405444936776885  1.0000
  C   C16       1.0  0.6274396266193806  0.5973882221010816  0.9594555068734761  1.0000
  C   C17       1.0  0.11973060098452305  0.7128122502194202  0.5213512141397466  1.0000
  C   C18       1.0  0.8802693989431928  0.7128122502194202  0.9786487854742277  1.0000
  C   C19       1.0  0.6197306012949272  0.21281224902043197  0.521351214536399  1.0000
  C   C20       1.0  0.38026939863278886  0.21281224902043197  0.9786487850775756  1.0000
  C   C21       1.0  0.8802693990240918  0.2871877500788155  0.47864878555494117  1.0000
  C   C22       1.0  0.119730601065422  0.2871877500788155  0.021351214220459946  1.0000
  C   C23       1.0  0.38026939871368776  0.7871877512778037  0.4786487851582888  1.0000
  C   C24       1.0  0.619730601375826  0.7871877512778037  0.021351214617112264  1.0000
  C   C25       1.0  0.9999999999619205  0.1585111031897753  0.2500000002392354  1.0000
  C   C26       1.0  0.4999999998219291  0.6585111043887635  0.24999999969869752  1.0000
  C   C27       1.0  0.9999999998810215  0.8414888971084603  0.7500000001585221  1.0000
  C   C28       1.0  0.5000000001866857  0.3414888959094722  0.7499999999959901  1.0000
  C   C29       1.0  0.021845611219768607  0.17654954768041045  0.13601652693318148  1.0000
  C   C30       1.0  0.978154388874485  0.17654954768041045  0.36398347340140375  1.0000
  C   C31       1.0  0.5218456110845172  0.6765495488793987  0.13601652695182775  1.0000
  C   C32       1.0  0.4781543885640811  0.6765495488793987  0.36398347300475153  1.0000
  C   C33       1.0  0.9781543887935861  0.8234504526178252  0.8639834733206904  1.0000
  C   C34       1.0  0.021845611138869677  0.8234504526178252  0.6360165268524682  1.0000
  C   C35       1.0  0.47815438892883766  0.323450451418837  0.8639834733020441  1.0000
  C   C36       1.0  0.5218456114492738  0.323450451418837  0.6360165272491204  1.0000
  C   C37       1.0  0.09503089492435308  0.8465002265866621  0.14029337559582955  1.0000
  C   C38       1.0  0.9049691051651607  0.8465002265866621  0.3597066241795716  1.0000
  C   C39       1.0  0.5950308947891016  0.34650022538767405  0.14029337561447588  1.0000
  C   C40       1.0  0.40496910530515207  0.34650022538767405  0.3597066247201094  1.0000
  C   C41       1.0  0.9049691050842619  0.15349977371157345  0.8597066240988582  1.0000
  C   C42       1.0  0.09503089484345416  0.15349977371157345  0.6402933755151163  1.0000
  C   C43       1.0  0.4049691052242531  0.6534997749105617  0.859706624639396  1.0000
  C   C44       1.0  0.5950308947082027  0.6534997749105617  0.6402933755337624  1.0000
  C   C45       1.0  0.08419386634299762  0.06091544049939968  0.1818728474363449  1.0000
  C   C46       1.0  0.9158061337465162  0.06091544049939968  0.31812715233905614  1.0000
  C   C47       1.0  0.5841938662077463  0.5609154395986471  0.18187284745499124  1.0000
  C   C48       1.0  0.41580613388176757  0.5609154395986471  0.3181271523204099  1.0000
  C   C49       1.0  0.9158061336656173  0.9390845597988361  0.8181271522583429  1.0000
  C   C50       1.0  0.0841938662620987  0.9390845597988361  0.6818728473556316  1.0000
  C   C51       1.0  0.4158061338008687  0.43908456069958857  0.8181271522396966  1.0000
  C   C52       1.0  0.5841938661268472  0.43908456069958857  0.6818728473742779  1.0000
  C   C53       1.0  0.13270746662127123  0.16223684539249808  0.26429245553136255  1.0000
  C   C54       1.0  0.8672925334682426  0.16223684539249808  0.2357075442440385  1.0000
  C   C55       1.0  0.6327074664860198  0.6622368444917456  0.26429245555000885  1.0000
  C   C56       1.0  0.3672925336082339  0.6622368444917456  0.23570754478457637  1.0000
  C   C57       1.0  0.8672925333873437  0.8377631549057376  0.7357075441633252  1.0000
  C   C58       1.0  0.1327074665403723  0.8377631549057376  0.7642924554506493  1.0000
  C   C59       1.0  0.3672925335273349  0.33776315580649013  0.735707544703863  1.0000
  C   C60       1.0  0.6327074664051209  0.33776315580649013  0.7642924554692955  1.0000
  C   C61       1.0  0.1896319403968855  0.05344036970603808  0.3014837450031567  1.0000
  C   C62       1.0  0.8103680596973682  0.05344036970603808  0.19851625533142855  1.0000
  C   C63       1.0  0.6896319402568941  0.5534403688052856  0.3014837444626188  1.0000
  C   C64       1.0  0.3103680598326196  0.5534403688052856  0.19851625531278222  1.0000
  C   C65       1.0  0.8103680596164693  0.9465596305921976  0.6985162552507153  1.0000
  C   C66       1.0  0.18963194031598657  0.9465596305921976  0.8014837449224433  1.0000
  C   C67       1.0  0.31036805975172077  0.44655963149295014  0.698516255232069  1.0000
  C   C68       1.0  0.6896319401759953  0.44655963149295014  0.8014837443819054  1.0000
  C   C69       1.0  0.19725343296279266  0.8394361317523176  0.2567159764099559  1.0000
  C   C70       1.0  0.802746567126721  0.8394361317523176  0.2432840233654451  1.0000
  C   C71       1.0  0.6972534332731968  0.3394361305533293  0.2567159768066082  1.0000
  C   C72       1.0  0.30274656681631706  0.3394361305533293  0.2432840229687929  1.0000
  C   C73       1.0  0.8027465670458223  0.16056386854591814  0.7432840232847319  1.0000
  C   C74       1.0  0.1972534328818938  0.16056386854591814  0.7567159763292426  1.0000
  C   C75       1.0  0.3027465667354181  0.6605638676451656  0.7432840228880796  1.0000
  C   C76       1.0  0.6972534331922978  0.6605638676451656  0.7567159767258949  1.0000
  N   N1        1.0  0.18818445710979873  0.9309361441397301  0.4867128775379741  1.0000
  N   N2        1.0  0.8118155429844551  0.9309361441397301  0.013287122796611166  1.0000
  N   N3        1.0  0.6881844569745473  0.43093614504048255  0.4867128775566204  1.0000
  N   N4        1.0  0.311815542674051  0.43093614504048255  0.013287122399958906  1.0000
  N   N5        1.0  0.8118155429035562  0.06906385615850562  0.5132871227158978  1.0000
  N   N6        1.0  0.18818445702889974  0.06906385615850562  0.9867128774572607  1.0000
  N   N7        1.0  0.31181554303880754  0.569063855257753  0.5132871226972516  1.0000
  N   N8        1.0  0.6881844573393039  0.569063855257753  0.986712877853913  1.0000
  N   N9        1.0  0.010303159421286774  0.31180075374412064  0.19626685637664631  1.0000
  N   N10       1.0  0.9896968406729668  0.31180075374412064  0.30373314395793893  1.0000
  N   N11       1.0  0.5103031592860353  0.8118007528433681  0.19626685639529262  1.0000
  N   N12       1.0  0.4896968408082184  0.8118007528433681  0.30373314393929257  1.0000
  N   N13       1.0  0.9896968405920681  0.688199246554115  0.8037331438772256  1.0000
  N   N14       1.0  0.010303159340387837  0.688199246554115  0.6962668562959329  1.0000
  N   N15       1.0  0.4896968407273194  0.1881992453551268  0.8037331438585793  1.0000
  N   N16       1.0  0.5103031592051364  0.1881992453551268  0.6962668563145793  1.0000
  N   N17       1.0  0.1500223563930894  0.7420293176458267  0.17793781175214074  1.0000
  N   N18       1.0  0.8499776437011642  0.7420293176458267  0.3220621885824444  1.0000
  N   N19       1.0  0.6500223562530981  0.2420293164468385  0.1779378112116029  1.0000
  N   N20       1.0  0.3499776438364158  0.2420293164468385  0.3220621885637982  1.0000
  N   N21       1.0  0.8499776436202653  0.2579706826524089  0.8220621885017311  1.0000
  N   N22       1.0  0.15002235631219044  0.2579706826524089  0.6779378116714274  1.0000
  N   N23       1.0  0.3499776437555168  0.7579706838513972  0.822062188483085  1.0000
  N   N24       1.0  0.6500223561721991  0.7579706838513972  0.6779378111308896  1.0000
  O   O1        1.0  0.19610672853169409  0.4769694566559978  0.45454827876358467  1.0000
  O   O2        1.0  0.8038932715578199  0.4769694566559978  0.04545172101181639  1.0000
  O   O3        1.0  0.6961067283964426  0.976969457854986  0.4545482787822311  1.0000
  O   O4        1.0  0.3038932716930712  0.976969457854986  0.04545172099317008  1.0000
  O   O5        1.0  0.8038932714769209  0.5230305436422379  0.5454517209311031  1.0000
  O   O6        1.0  0.19610672845079516  0.5230305436422379  0.9545482786828714  1.0000
  O   O7        1.0  0.3038932716121722  0.023030542443249678  0.5454517209124568  1.0000
  O   O8        1.0  0.6961067283155438  0.023030542443249678  0.9545482787015177  1.0000
  O   O9        1.0  0.16764263422890402  0.6382895762316837  0.5965424117645041  1.0000
  O   O10       1.0  0.8323573657035519  0.6382895762316837  0.9034575884086545  1.0000
  O   O11       1.0  0.6676426340889128  0.13828957713243628  0.5965424112239662  1.0000
  O   O12       1.0  0.33235736583880326  0.13828957713243628  0.9034575883900081  1.0000
  O   O13       1.0  0.8323573657844506  0.3617104219668112  0.40345758848936775  1.0000
  O   O14       1.0  0.16764263430980295  0.3617104219668112  0.09654241184521745  1.0000
  O   O15       1.0  0.33235736591970216  0.8617104231657993  0.4034575884707215  1.0000
  O   O16       1.0  0.6676426341698116  0.8617104231657993  0.09654241130467958  1.0000
  O   O17       1.0  0.06760127028796427  0.6473082966389606  0.49464166827321265  1.0000
  O   O18       1.0  0.9323987298062894  0.6473082966389606  0.0053583320613725  1.0000
  O   O19       1.0  0.5676012705936284  0.1473082975397131  0.4946416681106807  1.0000
  O   O20       1.0  0.43239872949588537  0.1473082975397131  0.005358331664720341  1.0000
  O   O21       1.0  0.9323987297253905  0.3526917036592751  0.5053583319806593  1.0000
  O   O22       1.0  0.06760127020706534  0.3526917036592751  0.9946416681924992  1.0000
  O   O23       1.0  0.4323987294149864  0.8526917027585226  0.5053583315840069  1.0000
  O   O24       1.0  0.5676012705127295  0.8526917027585226  0.9946416680299673  1.0000
  O   O25       1.0  0.9999999999619205  0.8937780965432776  0.2500000002392354  1.0000
  O   O26       1.0  0.4999999998219291  0.3937780974440301  0.24999999969869752  1.0000
  O   O27       1.0  0.9999999998810215  0.10622190165521739  0.7500000001585221  1.0000
  O   O28       1.0  0.5000000001866857  0.6062219028542056  0.7499999999959901  1.0000
