data_image0
_chemical_formula_structural       H40C60N12O16Cl4
_chemical_formula_sum              "H40 C60 N12 O16 Cl4"
_cell_length_a       6.758611841582219
_cell_length_b       14.368495352407887
_cell_length_c       14.440928817296596
_cell_angle_alpha    81.80727489439707
_cell_angle_beta     79.46365649132531
_cell_angle_gamma    85.77297116444193

_space_group_name_H-M_alt    "P 1"
_space_group_IT_number       1

loop_
  _space_group_symop_operation_xyz
  'x, y, z'

loop_
  _atom_site_type_symbol
  _atom_site_label
  _atom_site_symmetry_multiplicity
  _atom_site_fract_x
  _atom_site_fract_y
  _atom_site_fract_z
  _atom_site_occupancy
  H   H1        1.0  0.7433084001318421  0.2244750466321926  0.016707398465132237  1.0000
  H   H2        1.0  0.2566915996410967  0.775524952785864  0.9832926016732394  1.0000
  H   H3        1.0  0.9337412970594859  0.31368726938442765  0.6682203973002545  1.0000
  H   H4        1.0  0.06625870260346763  0.6863127307314598  0.33177960283838104  1.0000
  H   H5        1.0  0.8820942791238808  0.4356069567294469  0.7738354377804672  1.0000
  H   H6        1.0  0.11790572080409731  0.5643930434793417  0.22616456164763774  1.0000
  H   H7        1.0  0.749173656625676  0.8569417882760784  0.9806027428871039  1.0000
  H   H8        1.0  0.2508263446264654  0.14305821114210487  0.019397257252214382  1.0000
  H   H9        1.0  0.6697548591475664  0.9368822663113444  0.13057883559506797  1.0000
  H   H10       1.0  0.3302451405153875  0.06311773380454305  0.8694211645435674  1.0000
  H   H11       1.0  0.5791550692894901  0.9196419248950211  0.3076923780647473  1.0000
  H   H12       1.0  0.4208449319626512  0.08035807452316225  0.6923076220745711  1.0000
  H   H13       1.0  0.5388251786506109  0.7619959528183706  0.4009049903830467  1.0000
  H   H14       1.0  0.4611748211223279  0.2380040465996859  0.599095009755325  1.0000
  H   H15       1.0  0.5782049552648294  0.6179311082792451  0.3209950339829306  1.0000
  H   H16       1.0  0.4217950445081094  0.3820688911388114  0.6790049661554411  1.0000
  H   H17       1.0  0.6643385354791609  0.5462122090923814  0.162051937764953  1.0000
  H   H18       1.0  0.3356614656629955  0.4537877910236327  0.837948062374629  1.0000
  H   H19       1.0  0.2625047034178485  0.2572044814536668  0.494230242358885  1.0000
  H   H20       1.0  0.7374952977243079  0.7427955186623474  0.5057697577806971  1.0000
  H   H21       1.0  0.45170810442914255  0.30459245943107666  0.14386884982586462  1.0000
  H   H22       1.0  0.5482918952338112  0.6954075406848107  0.8561311503127709  1.0000
  H   H23       1.0  0.3832385696920538  0.4420882900983621  0.23109354421803796  1.0000
  H   H24       1.0  0.6167614299709  0.5579117100175255  0.7689064559205974  1.0000
  H   H25       1.0  0.07824952154597498  0.5948539841960688  0.8260958078668564  1.0000
  H   H26       1.0  0.9217504781169786  0.40514601591981875  0.17390419227177903  1.0000
  H   H27       1.0  0.04202616674698267  0.7670890647235072  0.8436936197891669  1.0000
  H   H28       1.0  0.9579738329159712  0.23291093539238025  0.15630638034946856  1.0000
  H   H29       1.0  0.06955593989132226  0.9337559127306364  0.7662898070947478  1.0000
  H   H30       1.0  0.9304440598816166  0.06624408668742024  0.23371019304362395  1.0000
  H   H31       1.0  0.16755947081349065  0.9691902730433362  0.5907524107896387  1.0000
  H   H32       1.0  0.8324405288494631  0.030809727072551325  0.4092475893489967  1.0000
  H   H33       1.0  0.22956788489182628  0.8416194219787675  0.4899492948236276  1.0000
  H   H34       1.0  0.7704321150361522  0.15838057823002089  0.5100507046044772  1.0000
  H   H35       1.0  0.24588348798678372  0.6579392006927983  0.48208958400978347  1.0000
  H   H36       1.0  0.7541165116761701  0.34206079942308915  0.517910416128852  1.0000
  H   H37       1.0  0.7582825968569972  0.5506500938486689  0.9755504584834074  1.0000
  H   H38       1.0  0.24171740280595647  0.44934990626721855  0.024449541655228096  1.0000
  H   H39       1.0  0.21998683537636193  0.48314977842108775  0.5513156302296884  1.0000
  H   H40       1.0  0.7800131646616015  0.5168502210898699  0.4486843691981526  1.0000
  C   C1        1.0  0.8076338298134564  0.33885712877830887  0.9031209584780345  1.0000
  C   C2        1.0  0.19236617132869974  0.6611428713377053  0.09687904166154751  1.0000
  C   C3        1.0  0.787045561934478  0.24432234292032348  0.940503189541044  1.0000
  C   C4        1.0  0.21295443799350028  0.7556776572884651  0.0594968098870609  1.0000
  C   C5        1.0  0.8242757199731628  0.17461776650142283  0.8806011152347625  1.0000
  C   C6        1.0  0.1757242796897909  0.8253822336144646  0.11939888490387295  1.0000
  C   C7        1.0  0.8775155346345616  0.19846997516972095  0.781312377399443  1.0000
  C   C8        1.0  0.12248446502839205  0.8015300249461667  0.2186876227391925  1.0000
  C   C9        1.0  0.8947600630077795  0.2934709872185544  0.744640416108241  1.0000
  C   C10       1.0  0.10523993824436187  0.7065290121996288  0.2553595840310773  1.0000
  C   C11       1.0  0.862585598318891  0.3626751273223801  0.8046510727168752  1.0000
  C   C12       1.0  0.13741440134406266  0.6373248727935074  0.19534892742176035  1.0000
  C   C13       1.0  0.7705292063090822  0.4123649264874376  0.9692956589804622  1.0000
  C   C14       1.0  0.22947079335387174  0.5876350736284499  0.03070434115817321  1.0000
  C   C15       1.0  0.7276670512440564  0.7895612510641854  0.026008123066349666  1.0000
  C   C16       1.0  0.2723329484188972  0.21043874905170215  0.9739918770722857  1.0000
  C   C17       1.0  0.6754856645001078  0.786744389035781  0.12613798062223072  1.0000
  C   C18       1.0  0.324514335272831  0.21325561038227545  0.873862019516141  1.0000
  C   C19       1.0  0.649313980762598  0.8679338593798612  0.17271022121420918  1.0000
  C   C20       1.0  0.3506860191653802  0.13206614082892726  0.8272897782138957  1.0000
  C   C21       1.0  0.6004100798577177  0.8578057578965476  0.27067617547003064  1.0000
  C   C22       1.0  0.3995899198052361  0.14219424221934002  0.7293238246686049  1.0000
  C   C23       1.0  0.5762810447490334  0.7676300321740881  0.32384494481916865  1.0000
  C   C24       1.0  0.42371895639312296  0.23236996794192616  0.6761550553204134  1.0000
  C   C25       1.0  0.5996509686017806  0.6871898001665935  0.27996438445631344  1.0000
  C   C26       1.0  0.4003490311711584  0.312810199251463  0.7200356156820582  1.0000
  C   C27       1.0  0.6500685254857874  0.6959940946881252  0.17989513311097197  1.0000
  C   C28       1.0  0.3499314741771663  0.3040059054277624  0.8201048670276635  1.0000
  C   C29       1.0  0.6791086201611275  0.6185639960385687  0.12733253930294436  1.0000
  C   C30       1.0  0.3208913795018262  0.3814360040773188  0.872667460835691  1.0000
  C   C31       1.0  0.32009752938479863  0.3592032258439824  0.3694303647689645  1.0000
  C   C32       1.0  0.6799024703881402  0.640796773574074  0.6305696353694071  1.0000
  C   C33       1.0  0.3048860226116811  0.26825297937406445  0.4174270974980919  1.0000
  C   C34       1.0  0.6951139773162973  0.7317470208347241  0.5825729019300129  1.0000
  C   C35       1.0  0.3412316641256936  0.19007329353416233  0.36832891418077374  1.0000
  C   C36       1.0  0.6587683355372601  0.8099267065817253  0.6316710859578617  1.0000
  C   C37       1.0  0.3931922986298312  0.20249097999575913  0.26834436754081914  1.0000
  C   C38       1.0  0.6068077014081323  0.7975090195151984  0.7316556318870218  1.0000
  C   C39       1.0  0.4089032045510955  0.2942522771837486  0.22069297999486678  1.0000
  C   C40       1.0  0.5910967951118583  0.7057477229321389  0.7793070201437687  1.0000
  C   C41       1.0  0.37213856134235396  0.37155928248087083  0.27010728972072573  1.0000
  C   C42       1.0  0.6278614383205998  0.6284407176350166  0.7298927104179097  1.0000
  C   C43       1.0  0.28353313988522244  0.4423376464093363  0.4231346481755713  1.0000
  C   C44       1.0  0.7164668597777312  0.5576623537065513  0.5768653519630642  1.0000
  C   C45       1.0  0.11453715753820434  0.6141544222025652  0.7493631338370091  1.0000
  C   C46       1.0  0.8854628421247495  0.38584557791332236  0.2506368663016264  1.0000
  C   C47       1.0  0.12379629314846564  0.7104339979558115  0.7105106793371031  1.0000
  C   C48       1.0  0.8762037065144881  0.28956600216007594  0.28948932080153233  1.0000
  C   C49       1.0  0.08478588060813232  0.7843310819350328  0.7669479001940596  1.0000
  C   C50       1.0  0.9152141191648063  0.21566891748302383  0.23305209994431222  1.0000
  C   C51       1.0  0.09961065233385526  0.8761878628785452  0.7234665052411021  1.0000
  C   C52       1.0  0.9003893473290985  0.12381213723734234  0.27653349489753337  1.0000
  C   C53       1.0  0.15263352891793217  0.8964450329385163  0.6236249493420281  1.0000
  C   C54       1.0  0.8473664710100461  0.10355496727027215  0.37637505008607675  1.0000
  C   C55       1.0  0.18916265733275936  0.8251306519732893  0.5668817449712361  1.0000
  C   C56       1.0  0.8108373424401795  0.17486934744476726  0.4331182551671356  1.0000
  C   C57       1.0  0.17514199184267035  0.7306412324600579  0.6098833164649718  1.0000
  C   C58       1.0  0.8248580078202833  0.2693587676558298  0.3901166836736637  1.0000
  C   C59       1.0  0.20844997169771715  0.651585041978975  0.5595301445914633  1.0000
  C   C60       1.0  0.7915500279652364  0.34841495813691253  0.4404698555471722  1.0000
  N   N1        1.0  0.8060041790629321  0.07721167020641391  0.9264785208065252  1.0000
  N   N2        1.0  0.19399582060002168  0.9227883299094736  0.07352147933211023  1.0000
  N   N3        1.0  0.7279972429454338  0.6284796207804852  0.033834691423096884  1.0000
  N   N4        1.0  0.27200275671752006  0.3715203793354023  0.9661653087155385  1.0000
  N   N5        1.0  0.7536207998882075  0.7144662349885122  0.9813438740802309  1.0000
  N   N6        1.0  0.24637919977474618  0.2855337651273753  0.018656126058404478  1.0000
  N   N7        1.0  0.3241321361618293  0.09812473656907822  0.426603205974534  1.0000
  N   N8        1.0  0.6758678636111096  0.9018752628489783  0.5733967941638378  1.0000
  N   N9        1.0  0.1955357589146714  0.5643182140966289  0.6023635294260317  1.0000
  N   N10       1.0  0.8044642407482824  0.43568178601925867  0.3976364707126037  1.0000
  N   N11       1.0  0.14989069868323382  0.5436162835806525  0.6983680228038478  1.0000
  N   N12       1.0  0.8501093013547295  0.456383715930305  0.30163197662399327  1.0000
  O   O1        1.0  0.785576037534984  0.4992729813331929  0.9252237504265315  1.0000
  O   O2        1.0  0.21442396239299424  0.5007270188755957  0.07477624900157324  1.0000
  O   O3        1.0  0.7297034359481229  0.39096141125985456  0.05650475279674399  1.0000
  O   O4        1.0  0.27029656397985535  0.609038588948934  0.9434952466313608  1.0000
  O   O5        1.0  0.6725204635080031  0.06236697498517549  0.9976446255151276  1.0000
  O   O6        1.0  0.3274795361549508  0.937633025130712  0.002355374623507914  1.0000
  O   O7        1.0  0.9261985030095142  0.01557955412194611  0.8935708241075685  1.0000
  O   O8        1.0  0.07380149691846402  0.9844204460868424  0.10642917532053636  1.0000
  O   O9        1.0  0.2385976423346465  0.41941334530516994  0.5161366462432423  1.0000
  O   O10       1.0  0.7614023590725345  0.5805866549037452  0.48386335318580914  1.0000
  O   O11       1.0  0.29708166290826593  0.5238411524777198  0.38179022151708153  1.0000
  O   O12       1.0  0.7029183382338904  0.4761588476382944  0.6182097786225006  1.0000
  O   O13       1.0  0.3354133531333342  0.09545822774089897  0.5120853259036153  1.0000
  O   O14       1.0  0.6645866467946441  0.9045417724678896  0.4879146735244894  1.0000
  O   O15       1.0  0.29707953091051115  0.028391471293880154  0.3896575380037039  1.0000
  O   O16       1.0  0.7029204687524425  0.9716085288220074  0.6103424621349316  1.0000
  Cl  Cl1       1.0  0.9085786307015636  0.11793745485005852  0.7023448811084958  1.0000
  Cl  Cl2       1.0  0.09142136896139019  0.8820625452658291  0.29765511903013975  1.0000
  Cl  Cl3       1.0  0.44831659166201926  0.11264694183636087  0.20020393705232095  1.0000
  Cl  Cl4       1.0  0.5516834080009345  0.8873530582795267  0.7997960630863146  1.0000
