data_image0
_chemical_formula_structural       H30C28N4O8I2
_chemical_formula_sum              "H30 C28 N4 O8 I2"
_cell_length_a       6.001709176302135
_cell_length_b       7.377271778917022
_cell_length_c       16.748972320917566
_cell_angle_alpha    90.0
_cell_angle_beta     99.51168262981612
_cell_angle_gamma    90.0

_space_group_name_H-M_alt    "P 1"
_space_group_IT_number       1

loop_
  _space_group_symop_operation_xyz
  'x, y, z'

loop_
  _atom_site_type_symbol
  _atom_site_label
  _atom_site_symmetry_multiplicity
  _atom_site_fract_x
  _atom_site_fract_y
  _atom_site_fract_z
  _atom_site_occupancy
  H   H1        1.0  0.8683758556163298  0.5548394315223234  0.12339582413936143  1.0000
  H   H2        1.0  0.13162414447491397  0.05483943144892379  0.8766041758352479  1.0000
  H   H3        1.0  0.5694720522850973  0.6080596586965535  0.9989650689624038  1.0000
  H   H4        1.0  0.4305279478061463  0.10805965862315381  0.001034931012205385  1.0000
  H   H5        1.0  0.12878643409059476  0.2508099424082248  0.10370249626924938  1.0000
  H   H6        1.0  0.8712135660006489  0.7508099424816245  0.8962975037053598  1.0000
  H   H7        1.0  0.4421664667679763  0.20685996337578674  0.22217346333642551  1.0000
  H   H8        1.0  0.5578335316589748  0.7068599634491864  0.7778265366422219  1.0000
  H   H9        1.0  0.7709041691249185  0.3052532016558813  0.2954650863035067  1.0000
  H   H10       1.0  0.2290958293020323  0.805253201729281  0.7045349136751405  1.0000
  H   H11       1.0  0.9594387175932436  0.4526798551117284  0.25105000456169146  1.0000
  H   H12       1.0  0.04056128249800012  0.9526798551851281  0.7489499954129177  1.0000
  H   H13       1.0  0.9376469151050582  0.21832451863884578  0.22482091425833978  1.0000
  H   H14       1.0  0.062353084986185636  0.7183245187122455  0.7751790857162695  1.0000
  H   H15       1.0  0.8302365064959718  0.3889926121742082  0.9181868755068108  1.0000
  H   H16       1.0  0.16976349359527199  0.8889926122476078  0.08181312446779845  1.0000
  H   H17       1.0  0.9353370693127  0.4054667605643115  0.6716584257490827  1.0000
  H   H18       1.0  0.0646629307785437  0.9054667606377111  0.3283415742255264  1.0000
  H   H19       1.0  0.25315154186183314  0.43181678613277935  0.7911040035609692  1.0000
  H   H20       1.0  0.7468484582294106  0.931816786206179  0.20889599641364004  1.0000
  H   H21       1.0  0.6399490330474439  0.06833279633816107  0.6654051674395925  1.0000
  H   H22       1.0  0.3600509670437999  0.5683327964115608  0.33459483253501665  1.0000
  H   H23       1.0  0.3122328190272707  0.054912507243900004  0.551954240790928  1.0000
  H   H24       1.0  0.687767181063973  0.5549125073172997  0.44804575918368117  1.0000
  H   H25       1.0  0.9866658857846009  0.1993863089338334  0.486248196055488  1.0000
  H   H26       1.0  0.01333411430664273  0.6993863090072331  0.5137518039191211  1.0000
  H   H27       1.0  0.8083708659428229  0.3232747472874179  0.5444699646316938  1.0000
  H   H28       1.0  0.19162913414842075  0.8232747473608175  0.45553003534291536  1.0000
  H   H29       1.0  0.8314095985697805  0.08131425111846179  0.5529850854794858  1.0000
  H   H30       1.0  0.16859040152146323  0.5813142511918614  0.44701491449512337  1.0000
  C   C1        1.0  0.7020261116574691  0.4910479847513215  0.11444325636574343  1.0000
  C   C2        1.0  0.29797388843377465  0.9910479848247212  0.8855567436088657  1.0000
  C   C3        1.0  0.5368543920901262  0.5206138915711485  0.047863978695563206  1.0000
  C   C4        1.0  0.46314560800111754  0.020613891497748834  0.952136021279046  1.0000
  C   C5        1.0  0.32749621272732854  0.43515894848478365  0.04277046086004592  1.0000
  C   C6        1.0  0.672503787363915  0.9351589485581833  0.9572295391145632  1.0000
  C   C7        1.0  0.28930052064659934  0.3211069702989514  0.10579883129303244  1.0000
  C   C8        1.0  0.7106994794446444  0.821106970372351  0.8942011686815767  1.0000
  C   C9        1.0  0.46009435415040123  0.2934979183209449  0.17092841346797297  1.0000
  C   C10       1.0  0.5399056459408426  0.7934979183943446  0.8290715865066363  1.0000
  C   C11       1.0  0.1492724898364811  0.4645579941617803  0.9691994655671133  1.0000
  C   C12       1.0  0.8507275102547626  0.96455799423518  0.03080053440749586  1.0000
  C   C13       1.0  0.8447265270119343  0.3366730296012776  0.24150306461949317  1.0000
  C   C14       1.0  0.15527347307930942  0.8366730296746773  0.758496935355116  1.0000
  C   C15       1.0  0.09539815068128046  0.33365041220717184  0.6746626585874002  1.0000
  C   C16       1.0  0.9046018494099632  0.8336504122805716  0.32533734138720893  1.0000
  C   C17       1.0  0.27293570029332953  0.35046068756593124  0.7384187996295742  1.0000
  C   C18       1.0  0.727064299797914  0.8504606862838163  0.2615812003450349  1.0000
  C   C19       1.0  0.47514135133506863  0.25865210706390906  0.7353677853733819  1.0000
  C   C20       1.0  0.5248586487561752  0.7586521071373087  0.2646322146012274  1.0000
  C   C21       1.0  0.489812112077952  0.14887667459110884  0.6684966778026402  1.0000
  C   C22       1.0  0.5101878880132917  0.6488766746645086  0.33150332217196893  1.0000
  C   C23       1.0  0.30861824388894266  0.1355413166229845  0.6061834771132127  1.0000
  C   C24       1.0  0.6913817562023011  0.6355413166963841  0.39381652286139657  1.0000
  C   C25       1.0  0.6757097349795242  0.2730229182766638  0.8029876643639386  1.0000
  C   C26       1.0  0.3242902651117194  0.7730229183500634  0.19701233561067055  1.0000
  C   C27       1.0  0.9220751839876559  0.20719033754025298  0.5438367108139053  1.0000
  C   C28       1.0  0.07792481610358783  0.7071903376136526  0.45616328916070387  1.0000
  N   N1        1.0  0.6611344214720359  0.37805909333184823  0.1742495422189738  1.0000
  N   N2        1.0  0.33886557695491515  0.8780590934052479  0.8257504577596736  1.0000
  N   N3        1.0  0.11557176192953816  0.22831086755045044  0.6099304105213417  1.0000
  N   N4        1.0  0.8844282381617055  0.7283108676238502  0.3900695894532674  1.0000
  O   O1        1.0  0.18693794940941727  0.5604357523896104  0.9122555041243714  1.0000
  O   O2        1.0  0.8130620506818266  0.06043575367172533  0.0877444958502378  1.0000
  O   O3        1.0  0.9615620764725843  0.3781893704896922  0.9739608537533722  1.0000
  O   O4        1.0  0.03843792361865939  0.8781893705630919  0.026039146221237087  1.0000
  O   O5        1.0  0.8406129473931119  0.1702174608218571  0.8009634931078837  1.0000
  O   O6        1.0  0.15938705269813183  0.6702174608952567  0.19903650686672547  1.0000
  O   O7        1.0  0.6562522801590125  0.39201146665963554  0.8575026323261558  1.0000
  O   O8        1.0  0.34374771993223135  0.8920114667330352  0.1424973676484535  1.0000
  I   I1        1.0  0.3660056664850758  0.1834014538906712  0.39082851366092747  1.0000
  I   I2        1.0  0.6339943336061679  0.6834014539640709  0.6091714863136817  1.0000
