data_image0
_chemical_formula_structural       H20C32N4O4Cl8
_chemical_formula_sum              "H20 C32 N4 O4 Cl8"
_cell_length_a       6.419831977474292
_cell_length_b       7.77315165773416
_cell_length_c       15.066359436792096
_cell_angle_alpha    90.0
_cell_angle_beta     98.15054843257677
_cell_angle_gamma    90.0

_space_group_name_H-M_alt    "P 1"
_space_group_IT_number       1

loop_
  _space_group_symop_operation_xyz
  'x, y, z'

loop_
  _atom_site_type_symbol
  _atom_site_label
  _atom_site_symmetry_multiplicity
  _atom_site_fract_x
  _atom_site_fract_y
  _atom_site_fract_z
  _atom_site_occupancy
  H   H1        1.0  0.6746449680466114  0.4465837105527267  0.34258962731426024  1.0000
  H   H2        1.0  0.1746449681591225  0.553416289738769  0.8425896275070486  1.0000
  H   H3        1.0  0.5928254927259111  0.3968674877108005  0.44371775055426477  1.0000
  H   H4        1.0  0.09282549283842212  0.6031325125806952  0.9437177507470532  1.0000
  H   H5        1.0  0.3805129314612716  0.8272028197986181  0.6661292671144148  1.0000
  H   H6        1.0  0.8805129315751412  0.17279717920639812  0.16612926759212807  1.0000
  H   H7        1.0  0.4597282474136048  0.8780002077033202  0.5648049661896494  1.0000
  H   H8        1.0  0.9597282475274743  0.1219997925881755  0.06480496666736253  1.0000
  H   H9        1.0  0.9818327824121404  0.3615018609863461  0.2934439912441078  1.0000
  H   H10       1.0  0.4818327825246515  0.6384981393051496  0.7934439914368961  1.0000
  H   H11       1.0  0.3102091845849848  0.18865230920085457  0.31669911740697587  1.0000
  H   H12       1.0  0.810209183972305  0.8113476910906412  0.8166991173205645  1.0000
  H   H13       1.0  0.40315951199797123  0.017648047541116374  0.45337574364949706  1.0000
  H   H14       1.0  0.9031595113852916  0.9823519527503793  0.9533757435630859  1.0000
  H   H15       1.0  0.06874721018434797  0.9105155272453648  0.7163031641631123  1.0000
  H   H16       1.0  0.5687472100718369  0.08948447304613089  0.21630316397032395  1.0000
  H   H17       1.0  0.7396261157550027  0.08125305639335828  0.6923682052537535  1.0000
  H   H18       1.0  0.23962611636768247  0.9187469438981374  0.19236820534016483  1.0000
  H   H19       1.0  0.6455221187190024  0.25153351125660844  0.5559095387995321  1.0000
  H   H20       1.0  0.14552211933168213  0.7484664890348872  0.055909538885943334  1.0000
  C   C1        1.0  0.9120732931305656  0.6293821265062104  0.5759298355471334  1.0000
  C   C2        1.0  0.4120732921860466  0.3706178737852853  0.0759298356349605  1.0000
  C   C3        1.0  0.10217006285949072  0.5478162561981023  0.580085682717015  1.0000
  C   C4        1.0  0.6021700627469797  0.4521837440933934  0.08008568252422656  1.0000
  C   C5        1.0  0.22595625016217788  0.5486992442449353  0.5051131879567323  1.0000
  C   C6        1.0  0.7259562500496667  0.45130075604656034  0.005113187763943961  1.0000
  C   C7        1.0  0.13868298344422308  0.6513697047145868  0.42657788659433027  1.0000
  C   C8        1.0  0.6386829828315433  0.34863029557690894  0.926577886507919  1.0000
  C   C9        1.0  0.9489926837462342  0.7339678667305268  0.42278538779457664  1.0000
  C   C10       1.0  0.448992682075166  0.2660321335609688  0.9227853873182793  1.0000
  C   C11       1.0  0.8247993126975353  0.7327794993337827  0.49781660165179903  1.0000
  C   C12       1.0  0.32479931281004626  0.2672205009577131  0.9978166018445874  1.0000
  C   C13       1.0  0.8793282847861592  0.28440866167847606  0.4172251576531472  1.0000
  C   C14       1.0  0.3793282848986703  0.7155913386130197  0.9172251578459356  1.0000
  C   C15       1.0  0.01956834178253355  0.2827005282745962  0.35344429738481337  1.0000
  C   C16       1.0  0.5195683411698538  0.7172994720168995  0.8534442972984021  1.0000
  C   C17       1.0  0.20426068445567153  0.1866006368931193  0.367150595718782  1.0000
  C   C18       1.0  0.7042606854001903  0.8133993633983765  0.8671505956309549  1.0000
  C   C19       1.0  0.257350684859431  0.09116631595562723  0.44502945128947985  1.0000
  C   C20       1.0  0.7573506842467512  0.9088336843358684  0.9450294512030686  1.0000
  C   C21       1.0  0.12131653456751779  0.08726062990487421  0.5108669559649786  1.0000
  C   C22       1.0  0.6213165344550068  0.9127393703866216  0.010866955772190184  1.0000
  C   C23       1.0  0.1712604451091002  0.986611824609055  0.5918971359308178  1.0000
  C   C24       1.0  0.6712604449965892  0.01338817568244069  0.0918971357380295  1.0000
  C   C25       1.0  0.03084795481335736  0.9873787889322159  0.6556249795754688  1.0000
  C   C26       1.0  0.5308479547008463  0.01262121135927993  0.15562497938268044  1.0000
  C   C27       1.0  0.845634181056161  0.08296724911552679  0.6419226219577603  1.0000
  C   C28       1.0  0.34563418011164193  0.9170327511759689  0.14192262204558742  1.0000
  C   C29       1.0  0.7922390936259867  0.17895416572966769  0.5641467861093812  1.0000
  C   C30       1.0  0.29223909423866645  0.821045834561828  0.06414678619579252  1.0000
  C   C31       1.0  0.9284374010976839  0.18388648812451672  0.498335250864712  1.0000
  C   C32       1.0  0.428437401210195  0.816113512166979  0.9983352510575004  1.0000
  N   N1        1.0  0.7035909807655577  0.3822424662258681  0.4015627933650681  1.0000
  N   N2        1.0  0.20359098087806876  0.6177575340656277  0.9015627935578564  1.0000
  N   N3        1.0  0.34755254135744623  0.8891541249067411  0.6066661204869921  1.0000
  N   N4        1.0  0.8475525412449351  0.1108458753847547  0.10666612029420375  1.0000
  O   O1        1.0  0.39279389064435855  0.46515984367838487  0.5089719371241446  1.0000
  O   O2        1.0  0.8927938907582281  0.5348401553266313  0.008971937601857756  1.0000
  O   O3        1.0  0.6574262027862633  0.81545480380447  0.49436209116729385  1.0000
  O   O4        1.0  0.1574262028987743  0.18454519520054624  0.9943620913600821  1.0000
  Cl  Cl1       1.0  0.7634117543782801  0.612474027219452  0.661028782509586  1.0000
  Cl  Cl2       1.0  0.2634117549909599  0.38752597307204373  0.16102878259599723  1.0000
  Cl  Cl3       1.0  0.20965295346814122  0.43362346811364305  0.6724406040704798  1.0000
  Cl  Cl4       1.0  0.7096529533556302  0.5663765321778527  0.1724406038776913  1.0000
  Cl  Cl5       1.0  0.2846585842365474  0.6624694006679204  0.34030249539564944  1.0000
  Cl  Cl6       1.0  0.7846585836238676  0.3375305996235754  0.8403024953092382  1.0000
  Cl  Cl7       1.0  0.8396463377147003  0.8450569999447  0.3298919910972683  1.0000
  Cl  Cl8       1.0  0.3396463376008306  0.15494300034679578  0.8298919906195551  1.0000
