data_image0
_chemical_formula_structural       H38C44O2S2Cl6
_chemical_formula_sum              "H38 C44 O2 S2 Cl6"
_cell_length_a       9.250224243720705
_cell_length_b       10.178188011062735
_cell_length_c       11.35836080790219
_cell_angle_alpha    102.24698964990804
_cell_angle_beta     108.56594360489763
_cell_angle_gamma    81.7295325354989

_space_group_name_H-M_alt    "P 1"
_space_group_IT_number       1

loop_
  _space_group_symop_operation_xyz
  'x, y, z'

loop_
  _atom_site_type_symbol
  _atom_site_label
  _atom_site_symmetry_multiplicity
  _atom_site_fract_x
  _atom_site_fract_y
  _atom_site_fract_z
  _atom_site_occupancy
  H   H1        1.0  0.7122228498036948  0.5463328991446781  0.46389037079535245  1.0000
  H   H2        1.0  0.2877771504288026  0.45366710123699966  0.5361096293727566  1.0000
  H   H3        1.0  0.6556720738582517  0.3046664988899813  0.39944297559100567  1.0000
  H   H4        1.0  0.34432792637424564  0.6953335014916964  0.6005570245771035  1.0000
  H   H5        1.0  0.3987930928218622  0.24354399553534972  0.2618392170397165  1.0000
  H   H6        1.0  0.6012069074106351  0.756456004846328  0.7381607831283925  1.0000
  H   H7        1.0  0.19898373181525028  0.42324600319245076  0.18489232174038825  1.0000
  H   H8        1.0  0.8010162684172469  0.5767539971892269  0.8151076784277207  1.0000
  H   H9        1.0  0.09117918562517066  0.5756396723749061  0.3552477351392783  1.0000
  H   H10       1.0  0.908820814755967  0.424360327011978  0.6447522650180183  1.0000
  H   H11       1.0  0.8157111113109331  0.5556318586768446  0.31420945279003915  1.0000
  H   H12       1.0  0.18428888784196854  0.4443681417100693  0.6857905473838464  1.0000
  H   H13       1.0  0.6231845030718364  0.6449589406812856  0.1337150457004134  1.0000
  H   H14       1.0  0.3768154971606611  0.3550410597003921  0.8662849544676957  1.0000
  H   H15       1.0  0.7099633569460191  0.7570246383318143  0.9962521552101882  1.0000
  H   H16       1.0  0.2900366423555229  0.2429753610603057  0.0037478449528849304  1.0000
  H   H17       1.0  0.985522203100857  0.7769886739307122  0.03677064636746093  1.0000
  H   H18       1.0  0.014477795851708608  0.2230113252939617  0.963229352851998  1.0000
  H   H19       1.0  0.17441213343158476  0.5875061836094599  0.9675169234679015  1.0000
  H   H20       1.0  0.8255878658699572  0.41249381578266014  0.03248307669517157  1.0000
  H   H21       1.0  0.28521693519813135  0.6700381676031915  0.8262337279248888  1.0000
  H   H22       1.0  0.714783065034366  0.3299618327784861  0.17376627224322008  1.0000
  H   H23       1.0  0.4500250530602027  0.8599074343683234  0.9088072038779942  1.0000
  H   H24       1.0  0.5499749462413395  0.1400925650237967  0.09119279628507894  1.0000
  H   H25       1.0  0.514960179689985  0.9658850929356249  0.1403660978833652  1.0000
  H   H26       1.0  0.4850398196115571  0.03411490645649527  0.8596339022797078  1.0000
  H   H27       1.0  0.6409209029594094  0.7747068776112481  0.38418543509685216  1.0000
  H   H28       1.0  0.3590790969241115  0.22529312260298354  0.6158145641276427  1.0000
  H   H29       1.0  0.5544035184916943  0.7943643457225905  0.5076891862457746  1.0000
  H   H30       1.0  0.44559648046087114  0.2056356535020836  0.49231081297368423  1.0000
  H   H31       1.0  0.9790451459500645  0.9578713810372237  0.28773045095658517  1.0000
  H   H32       1.0  0.02095485428243294  0.04212861934445384  0.712269549211524  1.0000
  H   H33       1.0  0.8447071699117612  0.09245132583509158  0.23179441065958742  1.0000
  H   H34       1.0  0.15529282997175972  0.9075486743791402  0.7682055885649076  1.0000
  H   H35       1.0  0.9395743216156055  0.13345472117560736  0.46518267227188614  1.0000
  H   H36       1.0  0.06042567861689187  0.8665452792060703  0.5348173278962229  1.0000
  H   H37       1.0  0.13437406383486147  0.11867089191668657  0.4625669555041731  1.0000
  H   H38       1.0  0.8656259363976359  0.8813291084649911  0.5374330446639359  1.0000
  C   C1        1.0  0.3418031529912438  0.5859768093045776  0.28284411899980433  1.0000
  C   C2        1.0  0.6581968470409173  0.4140231899148604  0.7171558802138781  1.0000
  C   C3        1.0  0.48824912144449967  0.6211653857172098  0.3603502542946167  1.0000
  C   C4        1.0  0.5117508784390211  0.3788346144970218  0.6396497449298781  1.0000
  C   C5        1.0  0.5999778747904746  0.5186519360476096  0.4013471866074217  1.0000
  C   C6        1.0  0.4000221250930462  0.48134806416662207  0.5986528126170731  1.0000
  C   C7        1.0  0.5686383988449056  0.3836152076003621  0.3657610543732743  1.0000
  C   C8        1.0  0.43136160138759166  0.6163847927813156  0.6342389457948348  1.0000
  C   C9        1.0  0.4238735238372268  0.349149763233357  0.2879494754273524  1.0000
  C   C10       1.0  0.5761264754643152  0.6508502361587633  0.7120505247357206  1.0000
  C   C11       1.0  0.3116612138086407  0.45000262343784947  0.24633823301046961  1.0000
  C   C12       1.0  0.6883387864238566  0.5499973769438282  0.7536617671576394  1.0000
  C   C13       1.0  0.057674095649929646  0.6738121009128142  0.1967871675136621  1.0000
  C   C14       1.0  0.9423259045825677  0.3261878994688635  0.803212832654447  1.0000
  C   C15       1.0  0.007837623287347113  0.6138421599421205  0.27547897327264165  1.0000
  C   C16       1.0  0.9921623769451503  0.3861578404395572  0.7245210268954674  1.0000
  C   C17       1.0  0.8523437915272682  0.6038976277889783  0.2529423172763537  1.0000
  C   C18       1.0  0.14765620870522903  0.3961023725926994  0.7470576828917553  1.0000
  C   C19       1.0  0.7445911098503656  0.6543818286812022  0.15207009692164905  1.0000
  C   C20       1.0  0.25540889038213166  0.3456181717004755  0.84792990324646  1.0000
  C   C21       1.0  0.793404572641228  0.7161518776344884  0.07438699990123983  1.0000
  C   C22       1.0  0.2065954275912692  0.28384812274718935  0.9256130002668692  1.0000
  C   C23       1.0  0.9489541251582817  0.7260795959144242  0.0964305513661165  1.0000
  C   C24       1.0  0.05104587472523919  0.2739204042998075  0.9035694478583783  1.0000
  C   C25       1.0  0.2757680044265795  0.735006444295242  0.12926117995118688  1.0000
  C   C26       1.0  0.7242319947263222  0.2649935560916717  0.8707388202226986  1.0000
  C   C27       1.0  0.2461196894372812  0.6717343851669976  0.0037498427380637943  1.0000
  C   C28       1.0  0.7538803097156205  0.32826561521991615  0.9962501574358217  1.0000
  C   C29       1.0  0.3090963225622926  0.7180242606040245  0.9250674946610397  1.0000
  C   C30       1.0  0.6909036776702047  0.28197573977765333  0.07493250550706937  1.0000
  C   C31       1.0  0.4019992229677275  0.8255836766764001  0.9719511480776941  1.0000
  C   C32       1.0  0.5980007772647697  0.17441632370527754  0.0280488520904148  1.0000
  C   C33       1.0  0.4365365060522463  0.887019972594377  0.0989585659853358  1.0000
  C   C34       1.0  0.5634634941802509  0.1129800277873008  0.9010414341827733  1.0000
  C   C35       1.0  0.3722954348298604  0.8397739903517857  0.17541064733571696  1.0000
  C   C36       1.0  0.6277045655512773  0.16022600903509837  0.8245893528215795  1.0000
  C   C37       1.0  0.22483784944197782  0.6967511534433094  0.23081824719040905  1.0000
  C   C38       1.0  0.7751621507905194  0.30324884693836834  0.7691817529777  1.0000
  C   C39       1.0  0.5362622273855772  0.7633751020275912  0.40537258955069155  1.0000
  C   C40       1.0  0.46373777284692025  0.23662489835408648  0.5946274106174175  1.0000
  C   C41       1.0  0.9642893347265271  0.06521491186061197  0.2811224671625164  1.0000
  C   C42       1.0  0.03571066550597024  0.9347850885210656  0.7188775330055927  1.0000
  C   C43       1.0  0.015355923168957548  0.14723811217431634  0.41212770137209  1.0000
  C   C44       1.0  0.9846440772121801  0.8527618872125677  0.5878722987852066  1.0000
  O   O1        1.0  0.24262878683594458  0.8191377633302345  0.329726620076062  1.0000
  O   O2        1.0  0.7573712135451931  0.18086223605664953  0.6702733800812345  1.0000
  S   S1        1.0  0.39659251165189685  0.8957570699398091  0.3411292765281271  1.0000
  S   S2        1.0  0.603407488231624  0.10424293027442251  0.6588707226963678  1.0000
  Cl  Cl1       1.0  0.6338985691444883  0.02909487010328957  0.3714971012618021  1.0000
  Cl  Cl2       1.0  0.3661014301570538  0.9709051292888305  0.628502898901271  1.0000
  Cl  Cl3       1.0  0.07597300828688079  0.08488790447247208  0.18348300973818135  1.0000
  Cl  Cl4       1.0  0.9240269919456164  0.9151120959092056  0.8165169904299276  1.0000
  Cl  Cl5       1.0  0.0005256373571542126  0.32466393698088664  0.40960189815847176  1.0000
  Cl  Cl6       1.0  0.9994743625263667  0.675336063233345  0.5903981010660232  1.0000
