data_image0
_chemical_formula_structural       H92C72N8O16Cl4
_chemical_formula_sum              "H92 C72 N8 O16 Cl4"
_cell_length_a       18.31438783959707
_cell_length_b       11.100142589944092
_cell_length_c       8.887404198072348
_cell_angle_alpha    90.0
_cell_angle_beta     90.0
_cell_angle_gamma    93.89851321221015

_space_group_name_H-M_alt    "P 1"
_space_group_IT_number       1

loop_
  _space_group_symop_operation_xyz
  'x, y, z'

loop_
  _atom_site_type_symbol
  _atom_site_label
  _atom_site_symmetry_multiplicity
  _atom_site_fract_x
  _atom_site_fract_y
  _atom_site_fract_z
  _atom_site_occupancy
  H   H1        1.0  0.3275960792587621  0.9507333604436834  0.26744169805121887  1.0000
  H   H2        1.0  0.6724039207265203  0.5492666393634636  0.7674416981596675  1.0000
  H   H3        1.0  0.6724039210560979  0.049266639445572594  0.7325583021656782  1.0000
  H   H4        1.0  0.3275960790459415  0.4507333605850694  0.23255830205722966  1.0000
  H   H5        1.0  0.5504949693542487  0.993310428949425  0.8237041904302963  1.0000
  H   H6        1.0  0.449505030704007  0.5066895717587531  0.3237041903218478  1.0000
  H   H7        1.0  0.44950503041821305  0.006689570999107976  0.17629580978660078  1.0000
  H   H8        1.0  0.5504949696838264  0.493310429031534  0.6762958098950493  1.0000
  H   H9        1.0  0.32155382879024924  0.8289089017137211  0.5586998216056134  1.0000
  H   H10       1.0  0.678446171195033  0.6710910980934262  0.058699821497164816  1.0000
  H   H11       1.0  0.6784461709822124  0.17109109823481197  0.4413001786112837  1.0000
  H   H12       1.0  0.32155382857742865  0.32890890185510685  0.9413001787197324  1.0000
  H   H13       1.0  0.27987584309280844  0.0747745096051307  0.0622042407073044  1.0000
  H   H14       1.0  0.7201241570092312  0.4252254904255112  0.5622042408157529  1.0000
  H   H15       1.0  0.7201241566796533  0.9252254903434024  0.9377957595095927  1.0000
  H   H16       1.0  0.279875843305629  0.5747745094637448  0.4377957594011441  1.0000
  H   H17       1.0  0.45640112065621813  0.9943362921014726  0.8643397868261855  1.0000
  H   H18       1.0  0.5435988793290641  0.5056637077056746  0.36433978671773704  1.0000
  H   H19       1.0  0.5435988796586418  0.005663707787783518  0.13566021339071152  1.0000
  H   H20       1.0  0.4564011204433975  0.49433629224285847  0.6356602134991601  1.0000
  H   H21       1.0  0.0018822181132929587  0.3010309976616535  0.28986317518435306  1.0000
  H   H22       1.0  0.9981177819887465  0.19896900236898848  0.7898631741676136  1.0000
  H   H23       1.0  0.9981177822015671  0.6989690022276025  0.7101368250325439  1.0000
  H   H24       1.0  0.0018822177837152388  0.8010309975795445  0.21013682492409547  1.0000
  H   H25       1.0  0.9229449660621085  0.2769556122610027  0.17491218643315107  1.0000
  H   H26       1.0  0.07705503403993104  0.22304438776963928  0.6749121865415996  1.0000
  H   H27       1.0  0.07705503425275168  0.7230443876282533  0.8250878137837461  1.0000
  H   H28       1.0  0.9229449657325307  0.7769556121788936  0.3250878136752975  1.0000
  H   H29       1.0  0.9778060281258543  0.08998294346700282  0.1960079930175602  1.0000
  H   H30       1.0  0.022193971433786798  0.410017056622916  0.6960079931260087  1.0000
  H   H31       1.0  0.022193971646607455  0.9100170564815303  0.8039920071993368  1.0000
  H   H32       1.0  0.9778060283386749  0.5899829433256168  0.3039920070908883  1.0000
  H   H33       1.0  0.9891658826105214  0.13961738100719465  0.007700976401505943  1.0000
  H   H34       1.0  0.010834117491518047  0.36038261902344737  0.5077009765099544  1.0000
  H   H35       1.0  0.010834117704338678  0.8603826188820615  0.9922990238153911  1.0000
  H   H36       1.0  0.9891658822809437  0.6396173809250857  0.4922990237069426  1.0000
  H   H37       1.0  0.10622933127945669  0.15157138220116717  0.2564341689887713  1.0000
  H   H38       1.0  0.8937706688225827  0.3484286178294748  0.7564341690972198  1.0000
  H   H39       1.0  0.893770668493005  0.8484286177473658  0.7435658301029379  1.0000
  H   H40       1.0  0.10622933156525058  0.6515713829608123  0.24356582999448928  1.0000
  H   H41       1.0  0.10102418124583228  0.051046786009595946  0.10280000094945188  1.0000
  H   H42       1.0  0.8989758188562071  0.44895321402104604  0.6028000010579004  1.0000
  H   H43       1.0  0.8989758185266294  0.9489532139389371  0.8971999981422573  1.0000
  H   H44       1.0  0.10102418145865293  0.5510467858682101  0.3971999991589966  1.0000
  H   H45       1.0  0.19546288622796534  0.20900472416415652  0.05453647985371559  1.0000
  H   H46       1.0  0.8045371138740741  0.29099527586648544  0.5545364799621642  1.0000
  H   H47       1.0  0.8045371140868947  0.7909952757250995  0.9454635203631816  1.0000
  H   H48       1.0  0.19546288589838764  0.7090047240820476  0.4454635202547329  1.0000
  H   H49       1.0  0.12564768896890818  0.22679557137786358  0.9240943572456547  1.0000
  H   H50       1.0  0.8743523111331313  0.2732044286527784  0.42409435713720617  1.0000
  H   H51       1.0  0.8743523108035536  0.7732044285706695  0.07590564297124233  1.0000
  H   H52       1.0  0.12564768918172883  0.7267955712364776  0.5759056430796908  1.0000
  H   H53       1.0  0.18554204908907498  0.4177787041529732  0.052552210925806926  1.0000
  H   H54       1.0  0.8144579510129644  0.08222129587766876  0.5525522110342554  1.0000
  H   H55       1.0  0.8144579512257851  0.5822212957362829  0.9474477892910901  1.0000
  H   H56       1.0  0.18554204875949726  0.9177787040708641  0.4474477891826416  1.0000
  H   H57       1.0  0.2330925009718344  0.6213493186525072  0.05922392728735834  1.0000
  H   H58       1.0  0.7669074984710496  0.8786506812139168  0.5592239273958068  1.0000
  H   H59       1.0  0.7669074988006274  0.37865068129602586  0.9407760729295387  1.0000
  H   H60       1.0  0.23309250130141212  0.12134931873461614  0.44077607282109016  1.0000
  H   H61       1.0  0.5231423481475843  0.8215063006819946  0.9750352056542595  1.0000
  H   H62       1.0  0.47685765183769796  0.6784936991251526  0.4750352055458108  1.0000
  H   H63       1.0  0.4768576516248773  0.17849369926653838  0.02496479343744976  1.0000
  H   H64       1.0  0.523142348477162  0.3215063007641035  0.5249647935458983  1.0000
  H   H65       1.0  0.13896868264457535  0.36991983850893845  0.22025637366921802  1.0000
  H   H66       1.0  0.8610313174574641  0.13008016152170354  0.7202563737776666  1.0000
  H   H67       1.0  0.8610313176702847  0.6300801613803176  0.779743626547679  1.0000
  H   H68       1.0  0.1389686823879709  0.8699198393278607  0.2797436264392305  1.0000
  H   H69       1.0  0.5322742684017686  0.7623017433706702  0.7931471983156693  1.0000
  H   H70       1.0  0.467725731656487  0.7376982573375079  0.2931471993324086  1.0000
  H   H71       1.0  0.4677257313706931  0.23769825657786275  0.20685280077603987  1.0000
  H   H72       1.0  0.5322742687313463  0.2623017434527792  0.7068528008844884  1.0000
  H   H73       1.0  0.38840182156244885  0.8101851950414918  0.954252191189804  1.0000
  H   H74       1.0  0.6115981784228335  0.6898148047656555  0.4542521910813554  1.0000
  H   H75       1.0  0.6115981782100129  0.18981480490704128  0.04574780902709318  1.0000
  H   H76       1.0  0.38840182189202654  0.31018519512360065  0.5457478091355418  1.0000
  H   H77       1.0  0.4236369993354954  0.6675963910992609  0.9363836171426771  1.0000
  H   H78       1.0  0.576363000649787  0.8324036087078861  0.4363836170342287  1.0000
  H   H79       1.0  0.5763630009793647  0.33240360878999514  0.06361638307421984  1.0000
  H   H80       1.0  0.4236369991226747  0.16759639124064685  0.5636163831826684  1.0000
  H   H81       1.0  0.4108585420761177  0.6790383209899508  0.655476203193676  1.0000
  H   H82       1.0  0.5891414579091646  0.8209616788171962  0.15547620308522753  1.0000
  H   H83       1.0  0.5891414582387424  0.3209616788993053  0.34452379589803306  1.0000
  H   H84       1.0  0.41085854186329707  0.17903832113133666  0.8445237960064816  1.0000
  H   H85       1.0  0.3270535420481683  0.6849987953453653  0.7512754558241198  1.0000
  H   H86       1.0  0.672946457937114  0.8150012044617817  0.2512754557156714  1.0000
  H   H87       1.0  0.6729464577242935  0.3150012046031676  0.24872454326758928  1.0000
  H   H88       1.0  0.32705354237774603  0.1849987954274743  0.7487245433760378  1.0000
  H   H89       1.0  0.3395410359417694  0.9152227412515289  0.7251799160206862  1.0000
  H   H90       1.0  0.6604589640435129  0.5847772585556181  0.22517991591223774  1.0000
  H   H91       1.0  0.6604589638306924  0.08477725869700409  0.2748200841962108  1.0000
  H   H92       1.0  0.3395410362713472  0.41522274133363796  0.7748200843046593  1.0000
  C   C1        1.0  0.2821894909210247  0.7761462578031542  0.1799645626950228  1.0000
  C   C2        1.0  0.7178105090642576  0.723853742003993  0.6799645628034713  1.0000
  C   C3        1.0  0.7178105093938353  0.22385374208610193  0.8200354363966864  1.0000
  C   C4        1.0  0.2821894907082041  0.27614625794454006  0.3200354362882378  1.0000
  C   C5        1.0  0.4972675056670577  0.9447653666685272  0.8021371585131958  1.0000
  C   C6        1.0  0.5027324943182246  0.55523463313862  0.3021371584047472  1.0000
  C   C7        1.0  0.5027324946478025  0.05523463322072887  0.1978628417037014  1.0000
  C   C8        1.0  0.497267505454237  0.44476536680991313  0.6978628418121499  1.0000
  C   C9        1.0  0.07036092526372052  0.430695346740994  0.046088908625180273  1.0000
  C   C10       1.0  0.9296390742959205  0.06930465334892486  0.5460889087336288  1.0000
  C   C11       1.0  0.9296390745817145  0.56930465410857  0.9539110915917167  1.0000
  C   C12       1.0  0.07036092547654117  0.9306953465996082  0.45391109148326825  1.0000
  C   C13       1.0  0.2957236401156426  0.9089908992662867  0.17532203163866  1.0000
  C   C14       1.0  0.7042763598696398  0.5910091005408602  0.6753220317471085  1.0000
  C   C15       1.0  0.7042763596568191  0.0910091006822461  0.824677968578237  1.0000
  C   C16       1.0  0.29572363990282197  0.4089908994076728  0.3246779684697885  1.0000
  C   C17       1.0  0.4972624629325377  0.8159815615784207  0.8634230849615661  1.0000
  C   C18       1.0  0.5027375370527448  0.6840184382287264  0.36342308485311753  1.0000
  C   C19       1.0  0.5027375373823224  0.18401843831083545  0.136576915255331  1.0000
  C   C20       1.0  0.49726246271971697  0.3159815617198065  0.6365769153637795  1.0000
  C   C21       1.0  0.983987891823385  0.28135526146824413  0.17313330256023923  1.0000
  C   C22       1.0  0.01601210827865438  0.21864473856239786  0.6731333026686878  1.0000
  C   C23       1.0  0.016012108491475018  0.718644738421012  0.8268666976566579  1.0000
  C   C24       1.0  0.9839878914938073  0.7813552613861351  0.3268666975482093  1.0000
  C   C25       1.0  0.0077606837063749125  0.15739055966995863  0.12398504506400193  1.0000
  C   C26       1.0  0.9922393163956644  0.34260944036068336  0.6239850451724505  1.0000
  C   C27       1.0  0.9922393166084851  0.8426094402192973  0.8760149551528951  1.0000
  C   C28       1.0  0.007760683449770448  0.6573905604888807  0.3760149550444466  1.0000
  C   C29       1.0  0.08991602217124804  0.14340440929205836  0.13730976591170294  1.0000
  C   C30       1.0  0.9100839773883929  0.3565955907978605  0.6373097660201514  1.0000
  C   C31       1.0  0.9100839776012136  0.8565955906564746  0.8626902343051942  1.0000
  C   C32       1.0  0.08991602238406868  0.6434044091506724  0.36269023419674556  1.0000
  C   C33       1.0  0.13847286114423502  0.23318675163378222  0.04469688461858863  1.0000
  C   C34       1.0  0.8615271389578044  0.2668132483968597  0.5446968836018493  1.0000
  C   C35       1.0  0.8615271386282267  0.7668132483147507  0.9553031155983084  1.0000
  C   C36       1.0  0.13847286135705567  0.7331867514923963  0.4553031154898599  1.0000
  C   C37       1.0  0.13764770432651502  0.36438231431373624  0.09636032984589012  1.0000
  C   C38       1.0  0.8623522957755243  0.1356176857169057  0.5963603299543386  1.0000
  C   C39       1.0  0.8623522959883451  0.6356176855755198  0.9036396703710069  1.0000
  C   C40       1.0  0.1376477039969373  0.8643823142316271  0.4036396702625584  1.0000
  C   C41       1.0  0.2696572833415964  0.9769691483974715  0.0606699411867585  1.0000
  C   C42       1.0  0.7303427166436859  0.5230308514096755  0.5606699412952071  1.0000
  C   C43       1.0  0.7303427164308652  0.02303085155106142  0.9393300579049506  1.0000
  C   C44       1.0  0.26965728312877574  0.47696914853885747  0.4393300577965021  1.0000
  C   C45       1.0  0.4205894681983866  0.7548507566825298  0.8792569287773477  1.0000
  C   C46       1.0  0.5794105317868957  0.7451492431246174  0.37925692866889926  1.0000
  C   C47       1.0  0.5794105315740752  0.24514924326600326  0.12074307143954931  1.0000
  C   C48       1.0  0.420589467985566  0.25485075682391567  0.6207430715479978  1.0000
  C   C49       1.0  0.22932796697889365  0.9178286854407354  0.9447736361333937  1.0000
  C   C50       1.0  0.7706720330063886  0.5821713143664118  0.44477363602494513  1.0000
  C   C51       1.0  0.7706720327935681  0.08217131450779759  0.055226362958315456  1.0000
  C   C52       1.0  0.22932796730847133  0.41782868552284436  0.555226363066764  1.0000
  C   C53       1.0  0.37980838113370624  0.7358235666296362  0.7302184389686707  1.0000
  C   C54       1.0  0.6201916189245494  0.7641764340785417  0.23021843886022209  1.0000
  C   C55       1.0  0.6201916186387554  0.26417643331889673  0.26978156124822644  1.0000
  C   C56       1.0  0.37980838146328394  0.23582356671174526  0.769781561356675  1.0000
  C   C57       1.0  0.21493116541257012  0.7845003861590759  0.9380236944560464  1.0000
  C   C58       1.0  0.7850688345727121  0.7154996136480712  0.43802369434759786  1.0000
  C   C59       1.0  0.78506883490229  0.2154996137301802  0.06197630576085071  1.0000
  C   C60       1.0  0.2149311651997495  0.28450038630046176  0.5619763058692993  1.0000
  C   C61       1.0  0.36215902568135055  0.850658801809908  0.6467069857413064  1.0000
  C   C62       1.0  0.6378409743039318  0.649341197997239  0.1467069856328578  1.0000
  C   C63       1.0  0.6378409740911112  0.14934119813862484  0.3532930133504028  1.0000
  C   C64       1.0  0.3621590260109283  0.35065880189201715  0.8532930134588513  1.0000
  C   C65       1.0  0.24223186213452538  0.7192472394682969  0.05957951255495374  1.0000
  C   C66       1.0  0.7577681379237302  0.7807527612398814  0.5595795126634022  1.0000
  C   C67       1.0  0.7577681381803347  0.2807527604209592  0.9404204876619434  1.0000
  C   C68       1.0  0.2422318619217047  0.21924723960968273  0.44042048755349483  1.0000
  C   C69       1.0  0.4269611451907998  0.9214335631288958  0.56543759212504  1.0000
  C   C70       1.0  0.5730388547944826  0.5785664366782514  0.06543759201659141  1.0000
  C   C71       1.0  0.5730388545816619  0.07856643681963722  0.43456240809185714  1.0000
  C   C72       1.0  0.42696114552037756  0.4214335632110048  0.9345624082003058  1.0000
  N   N1        1.0  0.4855182864194578  0.9552542894025416  0.6425653872295628  1.0000
  N   N2        1.0  0.5144817135658246  0.5447457104046053  0.14256538712111422  1.0000
  N   N3        1.0  0.514481713353004  0.04474571054599123  0.3574346129873343  1.0000
  N   N4        1.0  0.48551828674903547  0.4552542894846507  0.8574346119705949  1.0000
  N   N5        1.0  0.006360058790944196  0.37949180099848334  0.07746825559586137  1.0000
  N   N6        1.0  0.9936399413110951  0.12050819903215863  0.5774682557043098  1.0000
  N   N7        1.0  0.9936399409815174  0.6205081989500497  0.9225317434958478  1.0000
  N   N8        1.0  0.006360059003764832  0.8794918008570974  0.4225317433873992  1.0000
  O   O1        1.0  0.30694829005631236  0.7206667973348267  0.2920955311746774  1.0000
  O   O2        1.0  0.69305170992897  0.7793332024723203  0.7920955312831258  1.0000
  O   O3        1.0  0.6930517102585477  0.27933320255442934  0.7079044690422197  1.0000
  O   O4        1.0  0.3069482898434917  0.22066679747621262  0.20790446893377115  1.0000
  O   O5        1.0  0.415168592584156  0.9405902418992096  0.42801247419635297  1.0000
  O   O6        1.0  0.5848314074740997  0.5594097588089686  0.9280124743048015  1.0000
  O   O7        1.0  0.5848314071883056  0.05940975804932352  0.5719875260205441  1.0000
  O   O8        1.0  0.41516859291373376  0.4405902419813185  0.07198752591209555  1.0000
  O   O9        1.0  0.08576066068069527  0.5291492181364809  0.976208385107745  1.0000
  O   O10       1.0  0.9142393393045871  0.9708507816706662  0.4762083849992964  1.0000
  O   O11       1.0  0.9142393396341648  0.47085078175277517  0.023791615109152113  1.0000
  O   O12       1.0  0.08576066046787463  0.029149218277866776  0.5237916152176006  1.0000
  O   O13       1.0  0.1808463942862604  0.7388691108434637  0.8247924553256971  1.0000
  O   O14       1.0  0.819153605699022  0.7611308889636834  0.32479245634243653  1.0000
  O   O15       1.0  0.8191536054862013  0.2611308891050694  0.17520754376601202  1.0000
  O   O16       1.0  0.18084639407343975  0.2388691109848495  0.6752075438744606  1.0000
  Cl  Cl1       1.0  0.196097836856414  0.0006651919766588992  0.8052342495632426  1.0000
  Cl  Cl2       1.0  0.803902162703227  0.49933480811326  0.30523424945479416  1.0000
  Cl  Cl3       1.0  0.8039021629890211  0.9993348088729052  0.19476574952846643  1.0000
  Cl  Cl4       1.0  0.19609783706923464  0.500665191835273  0.694765749636915  1.0000
