data_image0
_chemical_formula_structural       H108C104N4O12F24I4
_chemical_formula_sum              "H108 C104 N4 O12 F24 I4"
_cell_length_a       7.440982466951112
_cell_length_b       17.957227449532695
_cell_length_c       20.12365479011005
_cell_angle_alpha    72.51587988048804
_cell_angle_beta     83.00122083747266
_cell_angle_gamma    89.47321739846517

_space_group_name_H-M_alt    "P 1"
_space_group_IT_number       1

loop_
  _space_group_symop_operation_xyz
  'x, y, z'

loop_
  _atom_site_type_symbol
  _atom_site_label
  _atom_site_symmetry_multiplicity
  _atom_site_fract_x
  _atom_site_fract_y
  _atom_site_fract_z
  _atom_site_occupancy
  H   H1        1.0  0.4815124823340199  0.691877243973965  0.3917413166650974  1.0000
  H   H2        1.0  0.5184875177982287  0.30812275601062716  0.6082586834728683  1.0000
  H   H3        1.0  0.43341206709932245  0.5485552130760621  0.4426299114436441  1.0000
  H   H4        1.0  0.566587933032926  0.45144478690853  0.5573700886943216  1.0000
  H   H5        1.0  0.722288612000668  0.5077427247450609  0.26815837612585075  1.0000
  H   H6        1.0  0.2777113881315806  0.49225727523953117  0.7318416240121149  1.0000
  H   H7        1.0  0.7863195692514472  0.648810380117516  0.20983497045763808  1.0000
  H   H8        1.0  0.21368042971580817  0.35118962004637805  0.790165029151832  1.0000
  H   H9        1.0  0.6170502287347562  0.8006412068379096  0.3040035813515448  1.0000
  H   H10       1.0  0.38294977157527105  0.1993587933253447  0.6959964182613304  1.0000
  H   H11       1.0  0.7797567098793925  0.7780701851647874  0.1631953020195788  1.0000
  H   H12       1.0  0.22024329025285588  0.2219298148198047  0.836804698118387  1.0000
  H   H13       1.0  0.8412987916803902  0.8936543732502961  0.06730830274622711  1.0000
  H   H14       1.0  0.15870120845185814  0.10634562673429614  0.9326916973917386  1.0000
  H   H15       1.0  0.8762231345667012  0.03665534919501955  0.017418559800157565  1.0000
  H   H16       1.0  0.12377686556554732  0.9633446507895727  0.982581440337808  1.0000
  H   H17       1.0  0.7110648232312448  0.0609136130395896  0.22277637441913087  1.0000
  H   H18       1.0  0.2889351770787824  0.9390863871236647  0.7772236251937444  1.0000
  H   H19       1.0  0.6798971390877727  0.918911161355545  0.27276841353279974  1.0000
  H   H20       1.0  0.32010286122225473  0.08108883880770934  0.7272315860800755  1.0000
  H   H21       1.0  0.776861134177303  0.16081160923941754  0.9888489058655919  1.0000
  H   H22       1.0  0.22313886613272427  0.8391883909238367  0.011151093747283484  1.0000
  H   H23       1.0  0.004595190361998829  0.16074402057192322  0.009261655508322262  1.0000
  H   H24       1.0  0.9954048097702496  0.8392559794126689  0.9907383446296436  1.0000
  H   H25       1.0  0.9309326053646678  0.2762882913311727  0.054362249016132125  1.0000
  H   H26       1.0  0.06906739494535936  0.7237117088320815  0.9456377505967432  1.0000
  H   H27       1.0  0.7150055952661052  0.279220818919295  0.024623279758377817  1.0000
  H   H28       1.0  0.2849944048661434  0.7207791810652971  0.9753767203795879  1.0000
  H   H29       1.0  0.9984943844089617  0.4120182112182803  0.9784756660148922  1.0000
  H   H30       1.0  0.0015056157232868417  0.5879817887663119  0.021524334123073523  1.0000
  H   H31       1.0  0.7804545134612805  0.4139832180983459  0.9518429196722655  1.0000
  H   H32       1.0  0.21954548667096796  0.5860167818862463  0.048157080465700185  1.0000
  H   H33       1.0  0.07976977275427233  0.30207167592490886  0.9304855772058614  1.0000
  H   H34       1.0  0.9202302273779761  0.6979283240596832  0.06951442293210428  1.0000
  H   H35       1.0  0.8638056919211229  0.3049024616490298  0.9009566139671283  1.0000
  H   H36       1.0  0.13619430821112574  0.6950975383355623  0.09904338617083747  1.0000
  H   H37       1.0  0.1364066331364359  0.44864405406102675  0.8522360133009625  1.0000
  H   H38       1.0  0.8635933669958126  0.5513559459235653  0.1477639868370033  1.0000
  H   H39       1.0  0.9160968915521692  0.45091114541894034  0.8257238340123183  1.0000
  H   H40       1.0  0.08390310875785814  0.5490888547443139  0.17427616560055692  1.0000
  H   H41       1.0  0.8310899427711892  0.5532358547788133  0.8847633982971154  1.0000
  H   H42       1.0  0.1689100573610593  0.4467641452057789  0.11523660184085029  1.0000
  H   H43       1.0  0.05190038342943524  0.5518715661105522  0.9099873386486061  1.0000
  H   H44       1.0  0.9480996167028133  0.44812843387404  0.09001266148935974  1.0000
  H   H45       1.0  0.17298461459053477  0.7495199568361358  0.6243198090019033  1.0000
  H   H46       1.0  0.8270153841989419  0.2504800431490962  0.3756801911326572  1.0000
  H   H47       1.0  0.12611363684439938  0.6460055823797095  0.6782981545281221  1.0000
  H   H48       1.0  0.8738863621228562  0.35399441778418456  0.3217018450813479  1.0000
  H   H49       1.0  0.13374419230873508  0.8530259188138681  0.6787194483262665  1.0000
  H   H50       1.0  0.8662558078235134  0.14697408117072397  0.3212805518116993  1.0000
  H   H51       1.0  0.17034064993635903  0.8235104026419446  0.7690303394283953  1.0000
  H   H52       1.0  0.8296593503736682  0.17648959752130977  0.23096966018448004  1.0000
  H   H53       1.0  0.9478181936603239  0.8318592131344438  0.7469917356047717  1.0000
  H   H54       1.0  0.05218180664970341  0.16814078702881044  0.2530082640081035  1.0000
  H   H55       1.0  0.34780001305739056  0.623997969222744  0.9066600519873592  1.0000
  H   H56       1.0  0.6521999870748579  0.37600203076184807  0.09333994815060646  1.0000
  H   H57       1.0  0.3836350540824454  0.7660384678768521  0.8488615258873379  1.0000
  H   H58       1.0  0.616364946049803  0.23396153210774012  0.1511384742506278  1.0000
  H   H59       1.0  0.7042829330534113  0.7357585591066561  0.6762978312887797  1.0000
  H   H60       1.0  0.2957170670932082  0.264241440321834  0.3237021688468179  1.0000
  H   H61       1.0  0.6825394179210478  0.5906652913996379  0.726618278926973  1.0000
  H   H62       1.0  0.3174605822112006  0.4093347085849544  0.27338172121099286  1.0000
  H   H63       1.0  0.5686730210789747  0.4783851456221499  0.8141848342957967  1.0000
  H   H64       1.0  0.4313269792310525  0.5216148545411042  0.18581516531707865  1.0000
  H   H65       1.0  0.37084947710598404  0.4971484550902539  0.952051723981467  1.0000
  H   H66       1.0  0.6291505218612713  0.5028515450736402  0.04794827562800314  1.0000
  H   H67       1.0  0.5472038137132317  0.35827182773654276  0.8476871960995966  1.0000
  H   H68       1.0  0.4527961864190169  0.6417281722480493  0.15231280403836908  1.0000
  H   H69       1.0  0.5176779716503858  0.21475119865776351  0.8983625229325845  1.0000
  H   H70       1.0  0.4823220284818627  0.7852488013268287  0.10163747720538129  1.0000
  H   H71       1.0  0.2612283777184537  0.24067840500018453  0.09427901068000284  1.0000
  H   H72       1.0  0.7387716224137948  0.7593215949844075  0.905720989457963  1.0000
  H   H73       1.0  0.28787970469608265  0.3816997503159763  0.04450337109939692  1.0000
  H   H74       1.0  0.7121202956139445  0.6183002498472779  0.9554966285134784  1.0000
  H   H75       1.0  0.17655213765100516  0.11687601469594167  0.1060347474820531  1.0000
  H   H76       1.0  0.8234478624812432  0.8831239852886507  0.8939652526559128  1.0000
  H   H77       1.0  0.4019812676048111  0.11477784798475375  0.12817973748558573  1.0000
  H   H78       1.0  0.5980187325274372  0.8852221519998383  0.8718202626523801  1.0000
  H   H79       1.0  0.4612816888850826  0.9978448747635833  0.08645801456916309  1.0000
  H   H80       1.0  0.538718311247166  0.0021551252210088687  0.9135419855688026  1.0000
  H   H81       1.0  0.24037137468297884  0.001594432307456614  0.06208684776245769  1.0000
  H   H82       1.0  0.7596286254492695  0.9984055676771355  0.9379131523755081  1.0000
  H   H83       1.0  0.10826376535185518  0.9744199063731166  0.1883034665362304  1.0000
  H   H84       1.0  0.8917362347803933  0.025580093611475507  0.8116965336017353  1.0000
  H   H85       1.0  0.3286794633154764  0.9701458618730435  0.21299882854841115  1.0000
  H   H86       1.0  0.6713205368167721  0.029854138111548682  0.7870011715895546  1.0000
  H   H87       1.0  0.17843445883473985  0.8665333328370469  0.13511542758190406  1.0000
  H   H88       1.0  0.8215655401325156  0.13346666732684687  0.864884572027566  1.0000
  H   H89       1.0  0.39898368131256606  0.8625956199717616  0.1594942584862919  1.0000
  H   H90       1.0  0.6010163188196824  0.13740438001283048  0.8405057416516738  1.0000
  H   H91       1.0  0.27206581403926716  0.821199909465033  0.2865556736571398  1.0000
  H   H92       1.0  0.7279341860929812  0.17880009051955925  0.7134443264808259  1.0000
  H   H93       1.0  0.04923334662390018  0.8277862626321667  0.2632822198627195  1.0000
  H   H94       1.0  0.9507666535083483  0.17221373735242532  0.7367177802752464  1.0000
  H   H95       1.0  0.12395678048293933  0.7286351951079619  0.19764690928539122  1.0000
  H   H96       1.0  0.8760432196493093  0.2713648048766302  0.8023530908525744  1.0000
  H   H97       1.0  0.34100245907365906  0.7189200137763  0.2269572990714687  1.0000
  H   H98       1.0  0.6589975397158176  0.28107998620893204  0.7730427010630917  1.0000
  H   H99       1.0  0.8806381155189063  0.5369759743448832  0.4709159474731798  1.0000
  H   H100      1.0  0.11936188461334214  0.4630240256397089  0.5290840526647859  1.0000
  H   H101      1.0  0.9580963560218058  0.6380522603159233  0.41791778408056085  1.0000
  H   H102      1.0  0.04190364428822152  0.3619477398473309  0.5820822155323144  1.0000
  H   H103      1.0  0.955604667455004  0.4283397713970238  0.4241996608207504  1.0000
  H   H104      1.0  0.04439533285502336  0.5716602287662303  0.5758003387921248  1.0000
  H   H105      1.0  0.18051341838332505  0.4417886144494062  0.37961471402585517  1.0000
  H   H106      1.0  0.8194865817489233  0.558211385535186  0.6203852861121106  1.0000
  H   H107      1.0  0.9965406153772877  0.455204855886074  0.3304430716859613  1.0000
  H   H108      1.0  0.003459384932739784  0.5447951442771802  0.6695569279269139  1.0000
  C   C1        1.0  0.44877931223306805  0.244162226810922  0.4789179162603517  1.0000
  C   C2        1.0  0.5512206880769593  0.755837773352332  0.5210820833525236  1.0000
  C   C3        1.0  0.2429236540835945  0.22763479069738782  0.5043551332884213  1.0000
  C   C4        1.0  0.757076346048654  0.7723652092872042  0.49564486684954456  1.0000
  C   C5        1.0  0.18019302857355823  0.13992973662475539  0.5417055430860959  1.0000
  C   C6        1.0  0.8198069715586902  0.8600702633598369  0.4582944570518699  1.0000
  C   C7        1.0  0.9680960363015422  0.1258004918250243  0.5556578822681495  1.0000
  C   C8        1.0  0.03190396400848499  0.8741995083382299  0.44434211734472584  1.0000
  C   C9        1.0  0.9011429577410007  0.042761263352021475  0.6060555306184685  1.0000
  C   C10       1.0  0.09885704239124782  0.9572387366325706  0.3939444695194973  1.0000
  C   C11       1.0  0.6925014645049956  0.02587701638848456  0.6169299148695837  1.0000
  C   C12       1.0  0.30749853562725277  0.9741229835961076  0.38307008526838204  1.0000
  C   C13       1.0  0.5381730858292526  0.6533568413438687  0.3623131369155256  1.0000
  C   C14       1.0  0.4618269143029959  0.3466431586407234  0.6376868632224402  1.0000
  C   C15       1.0  0.5107330945125635  0.5731635283245166  0.39093153365382394  1.0000
  C   C16       1.0  0.48926690561968494  0.4268364716600755  0.6090684664841418  1.0000
  C   C17       1.0  0.671002441591282  0.5506768772517289  0.2938440555962336  1.0000
  C   C18       1.0  0.3289975585409665  0.44932312273286334  0.7061559445417321  1.0000
  C   C19       1.0  0.705735325378622  0.629984238095671  0.26129571957667586  1.0000
  C   C20       1.0  0.2942646747536265  0.37001576188892116  0.7387042805612899  1.0000
  C   C21       1.0  0.6386248720720364  0.6844846997005221  0.29554030294216904  1.0000
  C   C22       1.0  0.361375128060212  0.31551530028407  0.7044596971957967  1.0000
  C   C23       1.0  0.665230212201261  0.7687033840945372  0.26714127510040164  1.0000
  C   C24       1.0  0.3347697879309875  0.231296615890055  0.7328587250375641  1.0000
  C   C25       1.0  0.7369973698560482  0.8096449973257258  0.20101718624186493  1.0000
  C   C26       1.0  0.2630026302762002  0.19035500265886632  0.7989828138961008  1.0000
  C   C27       1.0  0.7589379878623737  0.8941728423852752  0.1738835768198166  1.0000
  C   C28       1.0  0.24106201092710303  0.10582715759995666  0.8261164233147439  1.0000
  C   C29       1.0  0.8160751432945046  0.9300392081436953  0.10205932359891963  1.0000
  C   C30       1.0  0.18392485683774384  0.06996079184089679  0.8979406765390462  1.0000
  C   C31       1.0  0.8348747676304634  0.010971445580164175  0.07339189553283904  1.0000
  C   C32       1.0  0.1651252311590132  0.9890285544050677  0.9266081046017215  1.0000
  C   C33       1.0  0.7951897304542682  0.058399960845667065  0.11701293437101418  1.0000
  C   C34       1.0  0.20481026851298736  0.9416000393182269  0.8829870652384557  1.0000
  C   C35       1.0  0.7403762965340296  0.02372650047572712  0.18913769732403793  1.0000
  C   C36       1.0  0.25962370377599764  0.9762734996875271  0.8108623022888375  1.0000
  C   C37       1.0  0.7225912739328769  0.9435265524763519  0.21674819434425094  1.0000
  C   C38       1.0  0.27740872503437847  0.05647344768754219  0.7832518052652192  1.0000
  C   C39       1.0  0.8650491386703855  0.17791102208049908  0.02239185422177822  1.0000
  C   C40       1.0  0.13495086011909108  0.8220889779047329  0.9776081459127823  1.0000
  C   C41       1.0  0.8574679869105962  0.26437883413384516  0.01421914827184294  1.0000
  C   C42       1.0  0.14253201322165218  0.735621165850747  0.9857808518661229  1.0000
  C   C43       1.0  0.9233170579088525  0.4019894471431493  0.9378402088269654  1.0000
  C   C44       1.0  0.07668294223776691  0.5980105522853406  0.0621597913086323  1.0000
  C   C45       1.0  0.9367893102597791  0.3160149151551089  0.9416308728774553  1.0000
  C   C46       1.0  0.0632106898724694  0.6839850848294833  0.05836912726051045  1.0000
  C   C47       1.0  0.9930171177994287  0.4591773715706459  0.8664314306550883  1.0000
  C   C48       1.0  0.0069828823328197155  0.5408226284139461  0.1335685694828775  1.0000
  C   C49       1.0  0.9735912266888684  0.5416614819277894  0.8703677678586501  1.0000
  C   C50       1.0  0.026408773443380013  0.45833851805680276  0.12963223227931547  1.0000
  C   C51       1.0  0.021174493730462297  0.6732287526704691  0.8012383741622513  1.0000
  C   C52       1.0  0.978825506579565  0.32677124749278497  0.198761625450624  1.0000
  C   C53       1.0  0.08374391143345708  0.7307944929913207  0.7321867988195112  1.0000
  C   C54       1.0  0.9162560873560197  0.2692055069939112  0.26781320131504927  1.0000
  C   C55       1.0  0.1301779121973436  0.7074065216172529  0.6752684219327222  1.0000
  C   C56       1.0  0.8698220866065041  0.29259347781187683  0.32473157819947024  1.0000
  C   C57       1.0  0.08454540375997623  0.8145033114997824  0.7312633677354313  1.0000
  C   C58       1.0  0.9154545950295004  0.18549668848544956  0.26873663239912915  1.0000
  C   C59       1.0  0.4291873888495908  0.6452561739985537  0.8555413102394955  1.0000
  C   C60       1.0  0.5708126099398858  0.3547438259866781  0.144458689895065  1.0000
  C   C61       1.0  0.44879210353527116  0.7252508829905638  0.8234192399585972  1.0000
  C   C62       1.0  0.5512078965969772  0.2747491169940281  0.17658076017936855  1.0000
  C   C63       1.0  0.6264820846401296  0.7082609845253068  0.727246980791839  1.0000
  C   C64       1.0  0.3735179154921189  0.29173901545928554  0.2727530193461268  1.0000
  C   C65       1.0  0.6140918781954734  0.6275864937458348  0.7554444064250143  1.0000
  C   C66       1.0  0.3859081206083743  0.3724135056832951  0.24455559370717805  1.0000
  C   C67       1.0  0.5139859110646895  0.593501069372509  0.8216943942223154  1.0000
  C   C68       1.0  0.4860140890675589  0.40649893061208303  0.17830560591565037  1.0000
  C   C69       1.0  0.5051948049783431  0.5089154050017842  0.8500895050895418  1.0000
  C   C70       1.0  0.49480519533168416  0.49108459516146985  0.14991049452333355  1.0000
  C   C71       1.0  0.43017876772584157  0.46667658902671955  0.9152780975654747  1.0000
  C   C72       1.0  0.569821232406407  0.5333234109578727  0.08472190257249092  1.0000
  C   C73       1.0  0.41931044339920265  0.38204223899883066  0.9423238472485425  1.0000
  C   C74       1.0  0.5806895567330459  0.6179577609857615  0.057676152889423515  1.0000
  C   C75       1.0  0.483136410499305  0.33306911524168004  0.9015046368138786  1.0000
  C   C76       1.0  0.5168635896329434  0.6669308847429122  0.09849536332408726  1.0000
  C   C77       1.0  0.46780804907756973  0.25271335748200197  0.929334422984362  1.0000
  C   C78       1.0  0.5321919510546788  0.7472866425025902  0.07066557715360369  1.0000
  C   C79       1.0  0.38933304454902223  0.21802028946049798  0.9991915841052762  1.0000
  C   C80       1.0  0.6106669557610052  0.7819797107027563  0.0008084155075991555  1.0000
  C   C81       1.0  0.3250194934670026  0.26514509356042043  0.04056073478861364  1.0000
  C   C82       1.0  0.674980506665246  0.7348549064241718  0.959439265349352  1.0000
  C   C83       1.0  0.34042039915221023  0.34597303682366315  0.011657960874610433  1.0000
  C   C84       1.0  0.6595796009800381  0.654026963160929  0.9883420392633554  1.0000
  C   C85       1.0  0.3154539793122251  0.09877680874040683  0.0935455410611063  1.0000
  C   C86       1.0  0.6845460208200235  0.9012231912441855  0.9064544590768595  1.0000
  C   C87       1.0  0.3209367967269588  0.012579562856920905  0.10075161574693887  1.0000
  C   C88       1.0  0.6790632034052897  0.9874204371276711  0.8992483843910268  1.0000
  C   C89       1.0  0.24880505253676305  0.9601030910800353  0.17378348347480763  1.0000
  C   C90       1.0  0.7511949462527137  0.03989690890519648  0.8262165166597529  1.0000
  C   C91       1.0  0.2576079649178253  0.8747775817404094  0.17544948084947226  1.0000
  C   C92       1.0  0.7423920338716513  0.12522241824482253  0.8245505192850883  1.0000
  C   C93       1.0  0.18984564131612347  0.8160100637298514  0.24619711782685041  1.0000
  C   C94       1.0  0.8101543590082749  0.18398993587730067  0.7538028817836567  1.0000
  C   C95       1.0  0.2004721726995018  0.734368475334271  0.239489568789637  1.0000
  C   C96       1.0  0.7995278274327468  0.26563152465032125  0.7605104313483287  1.0000
  C   C97       1.0  0.13646162771075354  0.6026875770971675  0.3079457865190098  1.0000
  C   C98       1.0  0.863538372421495  0.39731242288742474  0.692054213618956  1.0000
  C   C99       1.0  0.04002464161539739  0.5483007240271194  0.37350900597142656  1.0000
  C   C100      1.0  0.959975358516851  0.4516992759574727  0.6264909941665392  1.0000
  C   C101      1.0  0.9554529707903516  0.5760365982560101  0.4235713722552753  1.0000
  C   C102      1.0  0.04454702934189693  0.42396340172858216  0.5764286278826904  1.0000
  C   C103      1.0  0.042259822033255304  0.46373275893104765  0.37757267670968897  1.0000
  C   C104      1.0  0.9577401767562214  0.5362672410541842  0.6224273234248715  1.0000
  N   N1        1.0  0.575712016268629  0.5220315638926344  0.3578248466222277  1.0000
  N   N2        1.0  0.4242879838636195  0.47796843609195777  0.6421751535157382  1.0000
  N   N3        1.0  0.5461141783146679  0.75684008171508  0.7602705881185813  1.0000
  N   N4        1.0  0.4538858219953594  0.24315991844817428  0.23972941149429394  1.0000
  O   O1        1.0  0.8039732665185052  0.13778676700943818  0.0951522961528061  1.0000
  O   O2        1.0  0.19602673361374323  0.8622132329751542  0.9048477039851597  1.0000
  O   O3        1.0  0.03714048917814348  0.5972349951331745  0.8028498607193711  1.0000
  O   O4        1.0  0.9628595109684759  0.4027650042953156  0.19715013941622647  1.0000
  O   O5        1.0  0.9589673202708457  0.6921970655819455  0.8530748672784412  1.0000
  O   O6        1.0  0.04103267986140257  0.30780293440264683  0.14692513285952455  1.0000
  O   O7        1.0  0.38244418062693675  0.13867404965497485  0.021132422631788616  1.0000
  O   O8        1.0  0.6175558181625399  0.8613259503302569  0.978867577502772  1.0000
  O   O9        1.0  0.1232720104988348  0.6787991822205662  0.3049342224646389  1.0000
  O   O10       1.0  0.8767279898111924  0.32120081794268807  0.6950657771482364  1.0000
  O   O11       1.0  0.2173667265025372  0.5809327578345688  0.26023478699098646  1.0000
  O   O12       1.0  0.7826332722869396  0.4190672421506632  0.739765213143574  1.0000
  F   F1        1.0  0.5044160614042834  0.2034293271239846  0.4329805612346194  1.0000
  F   F2        1.0  0.4955839389057437  0.7965706730392695  0.567019438378256  1.0000
  F   F3        1.0  0.5422459683095859  0.2174548658405093  0.5358567949195121  1.0000
  F   F4        1.0  0.45775403182266267  0.7825451341440828  0.46414320521845365  1.0000
  F   F5        1.0  0.19647949547675997  0.26841686851484736  0.5512306205038042  1.0000
  F   F6        1.0  0.8035205046554886  0.7315831314697446  0.4487693796341615  1.0000
  F   F7        1.0  0.14996797637210055  0.25649606888612225  0.4476294818593775  1.0000
  F   F8        1.0  0.8500320237601479  0.7435039310984699  0.5523705182785883  1.0000
  F   F9        1.0  0.2502393585281057  0.0950527553543112  0.5017418874625253  1.0000
  F   F10       1.0  0.7497606416041428  0.904947244630281  0.49825811267544035  1.0000
  F   F11       1.0  0.24889702656093862  0.1167616447332374  0.6045891824255041  1.0000
  F   F12       1.0  0.7511029735713098  0.8832383552513549  0.39541081771246167  1.0000
  F   F13       1.0  0.8941424825362929  0.1809636722972797  0.5842446401135949  1.0000
  F   F14       1.0  0.1058575175959554  0.8190363276873125  0.41575536002437086  1.0000
  F   F15       1.0  0.9070130590218896  0.1360847543900486  0.49230942310587544  1.0000
  F   F16       1.0  0.09298694111035907  0.8639152455945435  0.5076905770320902  1.0000
  F   F17       1.0  0.9859073078948593  0.9878344595804893  0.5798386593361021  1.0000
  F   F18       1.0  0.014092692237389204  0.01216554040410291  0.4201613408018636  1.0000
  F   F19       1.0  0.9531266457045552  0.03487947613531204  0.6708145920404692  1.0000
  F   F20       1.0  0.04687335308492143  0.96512052384992  0.32918540809409125  1.0000
  F   F21       1.0  0.6097572857040151  0.07943310715233637  0.6464134440116783  1.0000
  F   F22       1.0  0.39024271460601223  0.9205668930109179  0.35358655560119706  1.0000
  F   F23       1.0  0.631341754909985  0.036713649671192956  0.553469730815302  1.0000
  F   F24       1.0  0.36865824540004233  0.9632863504920613  0.4465302687975731  1.0000
  I   I1        1.0  0.509390533486803  0.37046881299883194  0.4267736509240454  1.0000
  I   I2        1.0  0.4906094666454456  0.6295311869857603  0.5732263492139202  1.0000
  I   I3        1.0  0.6194736814634731  0.906278381064079  0.6853116696582641  1.0000
  I   I4        1.0  0.3805263186687753  0.093721618920513  0.31468833047970174  1.0000
