data_image0
_chemical_formula_structural       H48C54N2P2Br2I2
_chemical_formula_sum              "H48 C54 N2 P2 Br2 I2"
_cell_length_a       9.653102453717224
_cell_length_b       10.811412722130584
_cell_length_c       12.681001882631119
_cell_angle_alpha    67.61619740259836
_cell_angle_beta     86.13732631129741
_cell_angle_gamma    75.44196229705733

_space_group_name_H-M_alt    "P 1"
_space_group_IT_number       1

loop_
  _space_group_symop_operation_xyz
  'x, y, z'

loop_
  _atom_site_type_symbol
  _atom_site_label
  _atom_site_symmetry_multiplicity
  _atom_site_fract_x
  _atom_site_fract_y
  _atom_site_fract_z
  _atom_site_occupancy
  H   H1        1.0  0.21813573966656896  0.14596835303339953  0.8459935762812093  1.0000
  H   H2        1.0  0.7818642602418556  0.8540316470962699  0.15400642368074716  1.0000
  H   H3        1.0  0.03245071570598888  0.01524344976559146  0.9159000803933631  1.0000
  H   H4        1.0  0.9675492842024357  0.9847565503640777  0.08409991956859346  1.0000
  H   H5        1.0  0.9547455662326508  0.9011726349732365  0.800941921922684  1.0000
  H   H6        1.0  0.0452544336757736  0.09882736515643308  0.1990580780392726  1.0000
  H   H7        1.0  0.06093875079320976  0.9222288453159747  0.6130473798220526  1.0000
  H   H8        1.0  0.9390612491152148  0.0777711548136947  0.386952620139904  1.0000
  H   H9        1.0  0.2418894354473494  0.059269330160601506  0.5372657694830985  1.0000
  H   H10       1.0  0.758110564461075  0.9407306699690678  0.46273423047885814  1.0000
  H   H11       1.0  0.40746171442459805  0.42134717112655234  0.7272379964773933  1.0000
  H   H12       1.0  0.5925382854838265  0.578652829003117  0.2727620034845632  1.0000
  H   H13       1.0  0.5539290444717259  0.38891340109457717  0.8925675278642051  1.0000
  H   H14       1.0  0.44607095543669856  0.6110865990350922  0.10743247209775156  1.0000
  H   H15       1.0  0.7038245301171521  0.1569522608239868  0.0072668407658415665  1.0000
  H   H16       1.0  0.2961754710915104  0.8430477383474646  0.9927331591897269  1.0000
  H   H17       1.0  0.7153785268453428  0.9571831614768774  0.9506150348802875  1.0000
  H   H18       1.0  0.2846214730630819  0.042816838652791914  0.049384965081669105  1.0000
  H   H19       1.0  0.5621499376452493  0.9855847788669518  0.7908802049674017  1.0000
  H   H20       1.0  0.43785006226317513  0.0144152212627176  0.20911979499455477  1.0000
  H   H21       1.0  0.15560249367671028  0.407546267891126  0.7070443756505711  1.0000
  H   H22       1.0  0.8443975062317143  0.5924537322385434  0.29295562431138555  1.0000
  H   H23       1.0  0.011816420044627993  0.6452056967027895  0.6046025923301008  1.0000
  H   H24       1.0  0.9881835798637965  0.35479430342687973  0.39539740763185577  1.0000
  H   H25       1.0  0.04157538593870275  0.7638292783979088  0.39660532306481866  1.0000
  H   H26       1.0  0.9584246139697218  0.2361707217317606  0.603394676897138  1.0000
  H   H27       1.0  0.21292770768709862  0.6435418783153308  0.29084432821425027  1.0000
  H   H28       1.0  0.7870722924840937  0.35645812086156475  0.7091556717415264  1.0000
  H   H29       1.0  0.3555416967376087  0.4056361733664016  0.3909165380885142  1.0000
  H   H30       1.0  0.6444583032069001  0.5943638263676194  0.609083462726688  1.0000
  H   H31       1.0  0.5275921312737865  0.04379974208439669  0.5833312176720952  1.0000
  H   H32       1.0  0.47240786863463813  0.9562002580452726  0.4166687822898615  1.0000
  H   H33       1.0  0.4251693883992569  0.1734526981059621  0.46209537830850583  1.0000
  H   H34       1.0  0.5748306115091676  0.8265473020237075  0.5379046216534508  1.0000
  H   H35       1.0  0.5838961995215305  0.3352858841556521  0.47738399054180236  1.0000
  H   H36       1.0  0.41610380042297845  0.664714115578369  0.5226160102733998  1.0000
  H   H37       1.0  0.6769911701815543  0.19426265139455304  0.44111290215811727  1.0000
  H   H38       1.0  0.32300882972687023  0.8057373487351165  0.5588870978038394  1.0000
  H   H39       1.0  0.688143510420547  0.18464958171922824  0.5832570318979847  1.0000
  H   H40       1.0  0.31185648948787753  0.8153504184104411  0.41674296806397193  1.0000
  H   H41       1.0  0.9816997898127593  0.645345720116216  0.8019886459845995  1.0000
  H   H42       1.0  0.018300210131749668  0.35465427961780505  0.19801135483060256  1.0000
  H   H43       1.0  0.8108927251917251  0.4983023704661819  0.8337990487085549  1.0000
  H   H44       1.0  0.1891072747166995  0.5016976296634874  0.16620095125340162  1.0000
  H   H45       1.0  0.8925884091834252  0.2445743007015181  0.9498475630509423  1.0000
  H   H46       1.0  0.10741159176246923  0.7554256994227073  0.05015243691080599  1.0000
  H   H47       1.0  0.2957129810449845  0.28062092337982164  0.0063618941655548475  1.0000
  H   H48       1.0  0.7042870191262078  0.7193790757970738  0.9936381057902219  1.0000
  C   C1        1.0  0.2441302586991315  0.10953864930779268  0.6878217913565595  1.0000
  C   C2        1.0  0.7558697412092931  0.8904613508218767  0.31217820860539724  1.0000
  C   C3        1.0  0.18437592215240417  0.09761005315249388  0.7941901618478234  1.0000
  C   C4        1.0  0.8156240777560203  0.9023899469771753  0.2058098381141332  1.0000
  C   C5        1.0  0.08019302048213546  0.023079535522472674  0.8339555625234121  1.0000
  C   C6        1.0  0.919806979689057  0.9769204636544228  0.1660444374323647  1.0000
  C   C7        1.0  0.036505116435468395  0.9590329066048536  0.7694712470847233  1.0000
  C   C8        1.0  0.9634948834729559  0.040967093524815805  0.23052875287723343  1.0000
  C   C9        1.0  0.09683479400078258  0.9707692495545153  0.6638087289484778  1.0000
  C   C10       1.0  0.9031652059076419  0.029230750575153973  0.3361912710134789  1.0000
  C   C11       1.0  0.20010826503545603  0.046191401687606715  0.6221056659633039  1.0000
  C   C12       1.0  0.7998917351357363  0.9538085974892887  0.3778943339924728  1.0000
  C   C13       1.0  0.47174126096003993  0.20502012291997002  0.7499906080712221  1.0000
  C   C14       1.0  0.5282587389483845  0.7949798772096994  0.2500093918907344  1.0000
  C   C15       1.0  0.47255840531554916  0.31911528385693355  0.7768907354307811  1.0000
  C   C16       1.0  0.5274415945928755  0.6808847162727357  0.22310926453117558  1.0000
  C   C17       1.0  0.5564640447379073  0.3009392318815915  0.8696781058905326  1.0000
  C   C18       1.0  0.44353595517051714  0.6990607682480778  0.13032189407142383  1.0000
  C   C19       1.0  0.6410676356222103  0.17068090503981573  0.9334899633861049  1.0000
  C   C20       1.0  0.3589323642862143  0.8293190950898536  0.06651003657585171  1.0000
  C   C21       1.0  0.6443654922058961  0.057761881706561394  0.9041537601916302  1.0000
  C   C22       1.0  0.35563450770252836  0.9422381184231078  0.09584623977032651  1.0000
  C   C23       1.0  0.5585785891198178  0.07421480660991733  0.8134013087994383  1.0000
  C   C24       1.0  0.4414214107886067  0.925785193519752  0.18659869116251834  1.0000
  C   C25       1.0  0.268460272186259  0.3917562143451372  0.55673997624919  1.0000
  C   C26       1.0  0.7315397277221656  0.608243785784532  0.4432600237127667  1.0000
  C   C27       1.0  0.17009291097720206  0.459402350900511  0.6161361458007502  1.0000
  C   C28       1.0  0.8299070889312223  0.5405976492291582  0.38386385416120655  1.0000
  C   C29       1.0  0.08888133070027895  0.5931535706940824  0.5585594978675372  1.0000
  C   C30       1.0  0.9111186692081455  0.4068464294355871  0.44144050209441943  1.0000
  C   C31       1.0  0.10480952856045918  0.6592378523574868  0.4415761830168533  1.0000
  C   C32       1.0  0.8951904713479654  0.3407621477721826  0.5584238169451033  1.0000
  C   C33       1.0  0.20104446404267276  0.5917557854199731  0.3820829902021329  1.0000
  C   C34       1.0  0.7989555369032216  0.4082442147042523  0.6179170097596155  1.0000
  C   C35       1.0  0.2828405336944234  0.45795463880299536  0.4389031475600455  1.0000
  C   C36       1.0  0.717159467251471  0.5420453613212299  0.5610968524017029  1.0000
  C   C37       1.0  0.48895306525001336  0.15621673154372345  0.5376965068641676  1.0000
  C   C38       1.0  0.5110469346584112  0.8437832685859457  0.4623034930977891  1.0000
  C   C39       1.0  0.6163517087680583  0.22219586566925728  0.5084134042217757  1.0000
  C   C40       1.0  0.383648292440604  0.777804133502194  0.49158659573379293  1.0000
  C   C41       1.0  0.34833589233652423  0.619394853202131  0.8583681471204699  1.0000
  C   C42       1.0  0.6516641075719003  0.38060514692753833  0.14163185284148683  1.0000
  C   C43       1.0  0.2578271240525107  0.5523559755871879  0.8807530154719809  1.0000
  C   C44       1.0  0.7421728758559136  0.4476440245424816  0.11924698448997564  1.0000
  C   C45       1.0  0.15461155034896037  0.47403959219994124  0.9006639506308696  1.0000
  C   C46       1.0  0.845388449559464  0.5259604079297282  0.099336049331087  1.0000
  C   C47       1.0  0.015241264948799384  0.5350234270880063  0.8523080014496766  1.0000
  C   C48       1.0  0.984758735222393  0.464976572088889  0.14769199850610032  1.0000
  C   C49       1.0  0.9198532326743543  0.45254087686886546  0.8696606792015658  1.0000
  C   C50       1.0  0.0801467672340702  0.5474591232608039  0.1303393207603909  1.0000
  C   C51       1.0  0.9652027951258065  0.311874042442977  0.9348387192267741  1.0000
  C   C52       1.0  0.0347972047826179  0.6881259576866923  0.06516128073518256  1.0000
  C   C53       1.0  0.18903872514604583  0.3310351325084703  0.9663755470631228  1.0000
  C   C54       1.0  0.8109612747623787  0.668964867621199  0.03362445289883381  1.0000
  N   N1        1.0  0.09738773500192537  0.25151619206559955  0.982790208425507  1.0000
  N   N2        1.0  0.9026122659439691  0.7484838080586258  0.017209791536241456  1.0000
  P   P1        1.0  0.3680813539919438  0.21695034767654056  0.6320348371693022  1.0000
  P   P2        1.0  0.6319186459164807  0.7830496524531287  0.3679651627926545  1.0000
  Br  Br1       1.0  0.7598838277654926  0.8342847093340874  0.6832872772760666  1.0000
  Br  Br2       1.0  0.24011617214293182  0.16571529079558198  0.31671272268589007  1.0000
  I   I1        1.0  0.5127190801449475  0.7111778181247423  0.7979409240404391  1.0000
  I   I2        1.0  0.48728091976347704  0.288822182004927  0.20205907592151756  1.0000
