data_image0
_chemical_formula_structural       H56C76N4P2Br2I4
_chemical_formula_sum              "H56 C76 N4 P2 Br2 I4"
_cell_length_a       15.197253970517465
_cell_length_b       15.197253970517465
_cell_length_c       7.531746029079156
_cell_angle_alpha    90.0
_cell_angle_beta     90.0
_cell_angle_gamma    90.0

_space_group_name_H-M_alt    "P 1"
_space_group_IT_number       1

loop_
  _space_group_symop_operation_xyz
  'x, y, z'

loop_
  _atom_site_type_symbol
  _atom_site_label
  _atom_site_symmetry_multiplicity
  _atom_site_fract_x
  _atom_site_fract_y
  _atom_site_fract_z
  _atom_site_occupancy
  H   H1        1.0  0.42161321133608914  0.6783409364612324  0.49758444396965384  1.0000
  H   H2        1.0  0.5783867886298609  0.3216590635047177  0.49758444396965384  1.0000
  H   H3        1.0  0.6783409364612324  0.5783867886298609  0.5024155561526079  1.0000
  H   H4        1.0  0.3216590635047177  0.42161321133608914  0.5024155561526079  1.0000
  H   H5        1.0  0.0783867883178791  0.1783409361492506  0.5024155561526079  1.0000
  H   H6        1.0  0.9216132116480711  0.8216590638166996  0.5024155561526079  1.0000
  H   H7        1.0  0.8216590638166996  0.0783867883178791  0.49758444396965384  1.0000
  H   H8        1.0  0.1783409361492506  0.9216132116480711  0.49758444396965384  1.0000
  H   H9        1.0  0.44885433995071505  0.8061224161790369  0.2995634519922668  1.0000
  H   H10       1.0  0.5511456600152351  0.19387758378691328  0.2995634519922668  1.0000
  H   H11       1.0  0.8061224161790369  0.5511456600152351  0.7004365481299949  1.0000
  H   H12       1.0  0.19387758378691328  0.44885433995071505  0.7004365481299949  1.0000
  H   H13       1.0  0.051145660361266825  0.306122415867055  0.7004365481299949  1.0000
  H   H14       1.0  0.9488543396046834  0.6938775840988951  0.7004365481299949  1.0000
  H   H15       1.0  0.6938775840988951  0.051145660361266825  0.2995634519922668  1.0000
  H   H16       1.0  0.306122415867055  0.9488543396046834  0.2995634519922668  1.0000
  H   H17       1.0  0.5560644835174954  0.794168225615897  0.05308814562469864  1.0000
  H   H18       1.0  0.44393551644845475  0.20583177435005315  0.05308814562469864  1.0000
  H   H19       1.0  0.794168225615897  0.44393551644845475  0.946911854497563  1.0000
  H   H20       1.0  0.20583177435005315  0.5560644835174954  0.946911854497563  1.0000
  H   H21       1.0  0.9439355167604366  0.29416822530391507  0.946911854497563  1.0000
  H   H22       1.0  0.05606448320551352  0.7058317746620351  0.946911854497563  1.0000
  H   H23       1.0  0.7058317746620351  0.9439355167604366  0.05308814562469864  1.0000
  H   H24       1.0  0.29416822530391507  0.05606448320551352  0.05308814562469864  1.0000
  H   H25       1.0  0.6369598585888735  0.6551705873519053  0.00014577496317068938  1.0000
  H   H26       1.0  0.36304014203509033  0.34482941261404493  0.00014577496317068938  1.0000
  H   H27       1.0  0.6551705873519053  0.36304014203509033  0.999854225159091  1.0000
  H   H28       1.0  0.34482941261404493  0.6369598585888735  0.999854225159091  1.0000
  H   H29       1.0  0.8630401416890586  0.1551705876979369  0.999854225159091  1.0000
  H   H30       1.0  0.13695985827689158  0.8448294122680132  0.999854225159091  1.0000
  H   H31       1.0  0.8448294122680132  0.8630401416890586  0.00014577496317068938  1.0000
  H   H32       1.0  0.1551705876979369  0.13695985827689158  0.00014577496317068938  1.0000
  H   H33       1.0  0.6088230550038611  0.5251271989980612  0.19198163007851515  1.0000
  H   H34       1.0  0.39117694496208905  0.474872800967889  0.19198163007851515  1.0000
  H   H35       1.0  0.5251271989980612  0.39117694496208905  0.8080183700437465  1.0000
  H   H36       1.0  0.474872800967889  0.6088230550038611  0.8080183700437465  1.0000
  H   H37       1.0  0.891176945274071  0.02512719934409292  0.8080183700437465  1.0000
  H   H38       1.0  0.10882305469187918  0.9748728006218572  0.8080183700437465  1.0000
  H   H39       1.0  0.9748728006218572  0.891176945274071  0.19198163007851515  1.0000
  H   H40       1.0  0.02512719934409292  0.10882305469187918  0.19198163007851515  1.0000
  H   H41       1.0  0.7808482264638984  0.7191517731560201  0.7663144943703919  1.0000
  H   H42       1.0  0.21915177350205176  0.28084822680993016  0.7663144943703919  1.0000
  H   H43       1.0  0.7191517731560201  0.21915177350205176  0.23368550575186986  1.0000
  H   H44       1.0  0.28084822680993016  0.7808482264638984  0.23368550575186986  1.0000
  H   H45       1.0  0.6531877679518702  0.8468122316680482  0.32337516833368024  1.0000
  H   H46       1.0  0.3468122320140799  0.15318776829790198  0.32337516833368024  1.0000
  H   H47       1.0  0.8468122316680482  0.3468122320140799  0.6766248317885813  1.0000
  H   H48       1.0  0.15318776829790198  0.6531877679518702  0.6766248317885813  1.0000
  H   H49       1.0  0.5658635781624163  0.9341364221155157  0.5427287091489686  1.0000
  H   H50       1.0  0.4341364218035339  0.06586357785043438  0.5427287091489686  1.0000
  H   H51       1.0  0.9341364221155157  0.4341364218035339  0.45727129097329317  1.0000
  H   H52       1.0  0.06586357785043438  0.5658635781624163  0.45727129097329317  1.0000
  H   H53       1.0  0.5915076064030478  0.9084923938748842  0.867439440307147  1.0000
  H   H54       1.0  0.4084923935629023  0.09150760674907957  0.867439440307147  1.0000
  H   H55       1.0  0.9084923938748842  0.4084923935629023  0.1325605598151147  1.0000
  H   H56       1.0  0.09150760674907957  0.5915076064030478  0.1325605598151147  1.0000
  C   C1        1.0  0.5142066201670457  0.5938465519828847  0.3583424679456402  1.0000
  C   C2        1.0  0.4857933804569181  0.40615344798306546  0.3583424679456402  1.0000
  C   C3        1.0  0.5938465519828847  0.4857933804569181  0.6416575321766216  1.0000
  C   C4        1.0  0.40615344798306546  0.5142066201670457  0.6416575321766216  1.0000
  C   C5        1.0  0.9857933801108865  0.09384655232891642  0.6416575321766216  1.0000
  C   C6        1.0  0.014206619855063761  0.9061534476370336  0.6416575321766216  1.0000
  C   C7        1.0  0.9061534476370336  0.9857933801108865  0.3583424679456402  1.0000
  C   C8        1.0  0.09384655232891642  0.014206619855063761  0.3583424679456402  1.0000
  C   C9        1.0  0.4683752021127559  0.6725810978634296  0.3885630740469625  1.0000
  C   C10       1.0  0.5316247978531942  0.32741890210252056  0.3885630740469625  1.0000
  C   C11       1.0  0.6725810978634296  0.5316247978531942  0.6114369260752991  1.0000
  C   C12       1.0  0.32741890210252056  0.4683752021127559  0.6114369260752991  1.0000
  C   C13       1.0  0.031624798199225944  0.17258109820946127  0.6114369260752991  1.0000
  C   C14       1.0  0.9683752024247378  0.8274189017564889  0.6114369260752991  1.0000
  C   C15       1.0  0.8274189017564889  0.031624798199225944  0.3885630740469625  1.0000
  C   C16       1.0  0.17258109820946127  0.9683752024247378  0.3885630740469625  1.0000
  C   C17       1.0  0.48318421105849096  0.7441508204008075  0.27674260283771634  1.0000
  C   C18       1.0  0.5168157895654728  0.25584917956514264  0.27674260283771634  1.0000
  C   C19       1.0  0.7441508204008075  0.5168157895654728  0.7232573972845454  1.0000
  C   C20       1.0  0.25584917956514264  0.48318421105849096  0.7232573972845454  1.0000
  C   C21       1.0  0.016815789253490934  0.24415082074683922  0.7232573972845454  1.0000
  C   C22       1.0  0.9831842107124593  0.755849179219111  0.7232573972845454  1.0000
  C   C23       1.0  0.755849179219111  0.016815789253490934  0.27674260283771634  1.0000
  C   C24       1.0  0.24415082074683922  0.9831842107124593  0.27674260283771634  1.0000
  C   C25       1.0  0.543485756441482  0.7375389805121714  0.1375952914501956  1.0000
  C   C26       1.0  0.4565142435244681  0.26246101945377875  0.1375952914501956  1.0000
  C   C27       1.0  0.7375389805121714  0.4565142435244681  0.8624047086720662  1.0000
  C   C28       1.0  0.26246101945377875  0.543485756441482  0.8624047086720662  1.0000
  C   C29       1.0  0.9565142438364501  0.23753898085820316  0.8624047086720662  1.0000
  C   C30       1.0  0.043485756129500126  0.7624610197657606  0.8624047086720662  1.0000
  C   C31       1.0  0.7624610197657606  0.9565142438364501  0.1375952914501956  1.0000
  C   C32       1.0  0.23753898085820316  0.043485756129500126  0.1375952914501956  1.0000
  C   C33       1.0  0.5890909257269699  0.6591189302641449  0.10751995578095842  1.0000
  C   C34       1.0  0.4109090742389804  0.34088106970180526  0.10751995578095842  1.0000
  C   C35       1.0  0.6591189302641449  0.4109090742389804  0.8924800443413032  1.0000
  C   C36       1.0  0.34088106970180526  0.5890909257269699  0.8924800443413032  1.0000
  C   C37       1.0  0.9109090745509624  0.15911893061017665  0.8924800443413032  1.0000
  C   C38       1.0  0.08909092541498789  0.8408810693557734  0.8924800443413032  1.0000
  C   C39       1.0  0.8408810693557734  0.9109090745509624  0.10751995578095842  1.0000
  C   C40       1.0  0.15911893061017665  0.08909092541498789  0.10751995578095842  1.0000
  C   C41       1.0  0.5741300064424013  0.5867257392222412  0.21670226182594066  1.0000
  C   C42       1.0  0.4258699935235489  0.4132742607437089  0.21670226182594066  1.0000
  C   C43       1.0  0.5867257392222412  0.4258699935235489  0.7832977382963211  1.0000
  C   C44       1.0  0.4132742607437089  0.5741300064424013  0.7832977382963211  1.0000
  C   C45       1.0  0.9258699938355307  0.08672573891025935  0.7832977382963211  1.0000
  C   C46       1.0  0.0741300061304194  0.9132742610556908  0.7832977382963211  1.0000
  C   C47       1.0  0.9132742610556908  0.9258699938355307  0.21670226182594066  1.0000
  C   C48       1.0  0.08672573891025935  0.0741300061304194  0.21670226182594066  1.0000
  C   C49       1.0  0.8177134832456091  0.6822865163743093  0.30096729247748466  1.0000
  C   C50       1.0  0.182286516720341  0.3177134835916409  0.30096729247748466  1.0000
  C   C51       1.0  0.6822865163743093  0.182286516720341  0.6990327076447771  1.0000
  C   C52       1.0  0.3177134835916409  0.8177134832456091  0.6990327076447771  1.0000
  C   C53       1.0  0.7749590513422858  0.7250409489356463  0.4080718293120368  1.0000
  C   C54       1.0  0.22504094928167798  0.27495905103030394  0.4080718293120368  1.0000
  C   C55       1.0  0.7250409489356463  0.22504094928167798  0.5919281694825116  1.0000
  C   C56       1.0  0.27495905103030394  0.7749590513422858  0.5919281694825116  1.0000
  C   C57       1.0  0.7335451958377989  0.7664548044401331  0.7128751406739144  1.0000
  C   C58       1.0  0.26645480412815126  0.233545195525817  0.7128751406739144  1.0000
  C   C59       1.0  0.7664548044401331  0.26645480412815126  0.28712485944834726  1.0000
  C   C60       1.0  0.233545195525817  0.7335451958377989  0.28712485944834726  1.0000
  C   C61       1.0  0.7241535037415234  0.7758464958783949  0.5273909269728316  1.0000
  C   C62       1.0  0.2758464962244267  0.22415350408755513  0.5273909269728316  1.0000
  C   C63       1.0  0.7758464958783949  0.2758464962244267  0.47260907314943007  1.0000
  C   C64       1.0  0.22415350408755513  0.7241535037415234  0.47260907314943007  1.0000
  C   C65       1.0  0.6623544312365831  0.8376455683833353  0.46531935177698586  1.0000
  C   C66       1.0  0.337645568729367  0.1623544315826149  0.46531935177698586  1.0000
  C   C67       1.0  0.8376455683833353  0.337645568729367  0.5346806483452758  1.0000
  C   C68       1.0  0.1623544315826149  0.6623544312365831  0.5346806483452758  1.0000
  C   C69       1.0  0.6140720743434571  0.8859279259344749  0.5874830873102317  1.0000
  C   C70       1.0  0.385927925622493  0.1140720746894889  0.5874830873102317  1.0000
  C   C71       1.0  0.8859279259344749  0.385927925622493  0.4125169128120301  1.0000
  C   C72       1.0  0.1140720746894889  0.6140720743434571  0.4125169128120301  1.0000
  C   C73       1.0  0.6285600831921047  0.8714399170858274  0.7680604348135812  1.0000
  C   C74       1.0  0.3714399167738455  0.12856008288012277  0.7680604348135812  1.0000
  C   C75       1.0  0.8714399170858274  0.3714399167738455  0.23193956398096713  1.0000
  C   C76       1.0  0.12856008288012277  0.6285600831921047  0.23193956398096713  1.0000
  N   N1        1.0  0.6871380724608914  0.8128619271590269  0.830791754772569  1.0000
  N   N2        1.0  0.3128619275050587  0.1871380728069232  0.830791754772569  1.0000
  N   N3        1.0  0.8128619271590269  0.3128619275050587  0.16920824534969278  1.0000
  N   N4        1.0  0.1871380728069232  0.6871380724608914  0.16920824534969278  1.0000
  P   P1        1.0  0.5000000003119819  0.5000000003119819  0.4999999993972742  1.0000
  P   P2        1.0  0.0  0.0  0.4999999993972742  1.0000
  Br  Br1       1.0  0.0  0.5000000003119819  0.8470023027024395  1.0000
  Br  Br2       1.0  0.5000000003119819  0.0  0.1529976974198222  1.0000
  I   I1        1.0  0.8869238881016771  0.6130761121762549  0.12067780385727178  1.0000
  I   I2        1.0  0.11307611186427301  0.3869238877896953  0.12067780385727178  1.0000
  I   I3        1.0  0.6130761121762549  0.11307611186427301  0.8793221962649899  1.0000
  I   I4        1.0  0.3869238877896953  0.8869238881016771  0.8793221962649899  1.0000
