data_image0
_chemical_formula_structural       H42C46N8O18S2Cl6
_chemical_formula_sum              "H42 C46 N8 O18 S2 Cl6"
_cell_length_a       7.127397095081455
_cell_length_b       13.954299538562559
_cell_length_c       14.078387150407337
_cell_angle_alpha    101.20394282323831
_cell_angle_beta     91.82913618758987
_cell_angle_gamma    103.10737668767575

_space_group_name_H-M_alt    "P 1"
_space_group_IT_number       1

loop_
  _space_group_symop_operation_xyz
  'x, y, z'

loop_
  _atom_site_type_symbol
  _atom_site_label
  _atom_site_symmetry_multiplicity
  _atom_site_fract_x
  _atom_site_fract_y
  _atom_site_fract_z
  _atom_site_occupancy
  H   H1        1.0  0.46209291352749293  0.8024587454509737  0.22237006516604646  1.0000
  H   H2        1.0  0.5379070875064013  0.19754125476831844  0.7776299351322847  1.0000
  H   H3        1.0  0.2254246179213761  0.030369341866113436  0.4702588625155838  1.0000
  H   H4        1.0  0.7745753817107043  0.9696306583556371  0.5297411377846676  1.0000
  H   H5        1.0  0.1638342208287849  0.7699018040363144  0.944502395714167  1.0000
  H   H6        1.0  0.8361657786839283  0.23009819602811055  0.05549760385967876  1.0000
  H   H7        1.0  0.31760071886990215  0.7177288813600624  0.07110107579283798  1.0000
  H   H8        1.0  0.682399282044625  0.28227111870190413  0.9288989237790878  1.0000
  H   H9        1.0  0.411219268132887  0.9786478792700445  0.14817267122413885  1.0000
  H   H10       1.0  0.5887807314991935  0.02135212095170614  0.8518273290761125  1.0000
  H   H11       1.0  0.745179773308866  0.15589416548871865  0.47803273530576096  1.0000
  H   H12       1.0  0.2548202263232143  0.8441058347330319  0.5219672649944904  1.0000
  H   H13       1.0  0.9662999093239727  0.21263698490841978  0.30754634511737267  1.0000
  H   H14       1.0  0.03370009030810779  0.7873630153133307  0.6924536551828787  1.0000
  H   H15       1.0  0.31036078323154914  0.5130608290788081  0.3213176421694182  1.0000
  H   H16       1.0  0.6896392164005313  0.4869391711429425  0.6786823581308332  1.0000
  H   H17       1.0  0.8831906866759714  0.8046017558527891  0.4985003932098171  1.0000
  H   H18       1.0  0.11680931402759605  0.195398243631056  0.5014996070901149  1.0000
  H   H19       1.0  0.7410991440771458  0.6876184435996477  0.5173581576816155  1.0000
  H   H20       1.0  0.2589008569567484  0.3123815566196444  0.4826418426167158  1.0000
  H   H21       1.0  0.6626681904295975  0.8004056859644578  0.5586024569665423  1.0000
  H   H22       1.0  0.3373318101546029  0.19959431336206157  0.44139754260698416  1.0000
  H   H23       1.0  0.27796978982547127  0.32776553607560377  0.28688120162456465  1.0000
  H   H24       1.0  0.7220302110890559  0.6722344639863629  0.7131187979473611  1.0000
  H   H25       1.0  0.03170952253314053  0.06202089070562639  0.25456116301572906  1.0000
  H   H26       1.0  0.9682904770989399  0.9379791095161242  0.7454388372845224  1.0000
  H   H27       1.0  0.9654414967341449  0.7435844260528551  0.2324939131172704  1.0000
  H   H28       1.0  0.03455850429974928  0.2564155741664372  0.7675060871810608  1.0000
  H   H29       1.0  0.7387817035849068  0.852607870712856  0.9967037481411001  1.0000
  H   H30       1.0  0.26121829744898745  0.14739212950643615  0.003296252157231143  1.0000
  H   H31       1.0  0.2590601057173553  0.6230773495935786  0.8594592007339994  1.0000
  H   H32       1.0  0.7409398939147251  0.376922650628172  0.14054079956625204  1.0000
  H   H33       1.0  0.0026072955960869653  0.6103522265152097  0.8600117879867811  1.0000
  H   H34       1.0  0.9973927039166264  0.3896477735492152  0.13998821158706481  1.0000
  H   H35       1.0  0.1263695122052182  0.5608039025115612  0.9443687776050975  1.0000
  H   H36       1.0  0.8736304874268623  0.4391960977101894  0.055631222695154  1.0000
  H   H37       1.0  0.42858198843401135  0.5994301774312815  0.19999095062281913  1.0000
  H   H38       1.0  0.5714180125998829  0.40056982278801073  0.8000090496755121  1.0000
  H   H39       1.0  0.34916603155535736  0.5540077494344889  0.0747987518065536  1.0000
  H   H40       1.0  0.650833968076723  0.4459922507872617  0.9252012484936978  1.0000
  H   H41       1.0  0.18387267377510763  0.5917035289457973  0.16009654725084746  1.0000
  H   H42       1.0  0.8161273257376056  0.40829647111862766  0.8399034523229985  1.0000
  C   C1        1.0  0.018396375009311274  0.5011944987549296  0.3603464631397264  1.0000
  C   C2        1.0  0.981603624503402  0.49880550130949536  0.6396535364341196  1.0000
  C   C3        1.0  0.6006220755142287  0.851830070720854  0.3680161037804859  1.0000
  C   C4        1.0  0.3993779241178517  0.14816992950089658  0.6319838965197655  1.0000
  C   C5        1.0  0.4837523174054171  0.015689819136422825  0.21934103878866126  1.0000
  C   C6        1.0  0.5162476822266633  0.9843101810853278  0.7806589615115901  1.0000
  C   C7        1.0  0.8431984044982853  0.4371216817081686  0.3734033787558721  1.0000
  C   C8        1.0  0.1568015950144278  0.5628783183562562  0.6265966208179738  1.0000
  C   C9        1.0  0.8259641618139667  0.3325103539880245  0.35401950480236904  1.0000
  C   C10       1.0  0.17403583769874653  0.6674896460764005  0.6459804947714769  1.0000
  C   C11       1.0  0.6337323674596567  0.012447090565920008  0.3786101714747912  1.0000
  C   C12       1.0  0.36626763217242386  0.9875529096558306  0.6213898288254602  1.0000
  C   C13       1.0  0.674660530962451  0.11703998042089851  0.40680071781667343  1.0000
  C   C14       1.0  0.32533946995207597  0.8829600196410681  0.5931992817552523  1.0000
  C   C15       1.0  0.5389595935997138  0.9631491735404641  0.28591903365594507  1.0000
  C   C16       1.0  0.4610404073148133  0.036850826521502476  0.7140809659159806  1.0000
  C   C17       1.0  0.5266684411874877  0.12040185775599113  0.24856235690702663  1.0000
  C   C18       1.0  0.47333155972703944  0.8795981423059754  0.7514376426648991  1.0000
  C   C19       1.0  0.6207702722795021  0.16996485410484785  0.34063956512066684  1.0000
  C   C20       1.0  0.37922972830469825  0.8300351452216715  0.6593604344528596  1.0000
  C   C21       1.0  0.9821602611922674  0.29355370201808245  0.32259317185436215  1.0000
  C   C22       1.0  0.017839737990119134  0.7064462973108954  0.6774068277210844  1.0000
  C   C23       1.0  0.1752262428069548  0.4619063665952053  0.3298203751278455  1.0000
  C   C24       1.0  0.8247737567057585  0.5380936334692197  0.6701796244460004  1.0000
  C   C25       1.0  0.7362448089145647  0.7610429991161155  0.5022844362475541  1.0000
  C   C26       1.0  0.2637551921193296  0.23895700110317666  0.49771556405077705  1.0000
  C   C27       1.0  0.15595210841356008  0.3584301992499348  0.3109351982316393  1.0000
  C   C28       1.0  0.8440478925009671  0.6415698008120319  0.6890648013402865  1.0000
  C   C29       1.0  0.1025067546982876  0.9217353057962961  0.35472825507364103  1.0000
  C   C30       1.0  0.8974932448144256  0.07826469426812871  0.6452717445002049  1.0000
  C   C31       1.0  0.007501544902870969  0.9049467823900903  0.25405514283588493  1.0000
  C   C32       1.0  0.9924984546098422  0.09505321767433456  0.745944856737961  1.0000
  C   C33       1.0  0.9797841874533268  0.9852095930418018  0.21420206207490505  1.0000
  C   C34       1.0  0.02021581217875362  0.014790407179948799  0.7857979382253464  1.0000
  C   C35       1.0  0.9432463559781918  0.8059893644239813  0.20108922300473542  1.0000
  C   C36       1.0  0.05675364320419467  0.19401063490499662  0.7989107765707112  1.0000
  C   C37       1.0  0.8149519581210426  0.8669463559364209  0.06803724500725417  1.0000
  C   C38       1.0  0.18504804279348439  0.13305364412554563  0.9319627545646715  1.0000
  C   C39       1.0  0.8491276300318567  0.7890944998835704  0.10908971282846054  1.0000
  C   C40       1.0  0.1508723696002237  0.21090550033818017  0.8909102874717908  1.0000
  C   C41       1.0  0.883035533086533  0.9643122497825237  0.12217385405818211  1.0000
  C   C42       1.0  0.11696446654554737  0.035687750439227  0.8778261462420692  1.0000
  C   C43       1.0  0.13716706206031085  0.6223306550589739  0.9054692032519112  1.0000
  C   C44       1.0  0.8628329375717695  0.37766934516277667  0.09453079704834018  1.0000
  C   C45       1.0  0.3345813757038697  0.6080484170668566  0.1406724092544971  1.0000
  C   C46       1.0  0.6654186235978841  0.3919515824194468  0.8593275910473551  1.0000
  N   N1        1.0  0.6708969706456387  0.9410308619927464  0.4282982568520789  1.0000
  N   N2        1.0  0.32910303038825556  0.05896913822654575  0.5717017434462524  1.0000
  N   N3        1.0  0.520797384841791  0.8618519094854401  0.2816712313996641  1.0000
  N   N4        1.0  0.4792026161921033  0.1381480907338521  0.718328768898667  1.0000
  N   N5        1.0  0.8486505539068636  0.04733131706022202  0.07991189084719995  1.0000
  N   N6        1.0  0.15134944539489018  0.9526686824260815  0.9200881094546522  1.0000
  N   N7        1.0  0.7801109376085881  0.6849526621091784  0.0529144934028745  1.0000
  N   N8        1.0  0.2198890620234923  0.3150473381125722  0.9470855068973769  1.0000
  O   O1        1.0  0.6498553821237992  0.2740422359373639  0.3676769942554521  1.0000
  O   O2        1.0  0.35014461879072795  0.7259577641246027  0.6323230053164737  1.0000
  O   O3        1.0  0.15411062160599562  0.017043305015399232  0.39872160165330056  1.0000
  O   O4        1.0  0.8458893794278985  0.982956695203893  0.6012783986450305  1.0000
  O   O5        1.0  0.12451948645847037  0.8495738778719324  0.38872823988959304  1.0000
  O   O6        1.0  0.8754805130542429  0.15042612219249257  0.611271759684253  1.0000
  O   O7        1.0  0.9240291201412711  0.13487173043731887  0.12398560427364869  1.0000
  O   O8        1.0  0.07597087949080927  0.8651282697844317  0.8760143960266027  1.0000
  O   O9        1.0  0.8021224827329234  0.6163149090976009  0.09296744600508848  1.0000
  O   O10       1.0  0.19787751818160365  0.38368509096436565  0.9070325535668373  1.0000
  O   O11       1.0  0.7047296714972379  0.6728206900370879  0.9696873266740175  1.0000
  O   O12       1.0  0.29527032953665644  0.32717931018220436  0.03031267362431372  1.0000
  O   O13       1.0  0.7476486249003197  0.026714988658783717  0.001964276201485895  1.0000
  O   O14       1.0  0.2523513744014339  0.9732850108275197  0.9980357241003662  1.0000
  O   O15       1.0  0.16719392491085838  0.714372801363069  0.9773671335424502  1.0000
  O   O16       1.0  0.8328060761230359  0.2856271988562231  0.022632866755880946  1.0000
  O   O17       1.0  0.39701145238288793  0.7096611623142444  0.1275884364292748  1.0000
  O   O18       1.0  0.6029885471298254  0.2903388377501806  0.8724115631445712  1.0000
  S   S1        1.0  0.6014373752614347  0.7332429656367769  0.38628772389486604  1.0000
  S   S2        1.0  0.3985626257724595  0.2667570345825154  0.6137122764034653  1.0000
  Cl  Cl1       1.0  0.043370716566072554  0.6291914689368808  0.3795098379511818  1.0000
  Cl  Cl2       1.0  0.9566292830660079  0.3708085312848697  0.6204901623490695  1.0000
  Cl  Cl3       1.0  0.6480320307874977  0.4828435579753137  0.4114145377449496  1.0000
  Cl  Cl4       1.0  0.3519679701270293  0.5171564420866528  0.588585461826976  1.0000
  Cl  Cl5       1.0  0.4640282109277498  0.1922960076825918  0.17107933275371429  1.0000
  Cl  Cl6       1.0  0.5359717883740039  0.8077039918037117  0.8289206675481379  1.0000
