data_image0
_chemical_formula_structural       H126C147P6
_chemical_formula_sum              "H126 C147 P6"
_cell_length_a       10.84710663579981
_cell_length_b       10.847106635799811
_cell_length_c       27.182625748860474
_cell_angle_alpha    90.0
_cell_angle_beta     90.0
_cell_angle_gamma    119.99999999999997

_space_group_name_H-M_alt    "P 1"
_space_group_IT_number       1

loop_
  _space_group_symop_operation_xyz
  'x, y, z'

loop_
  _atom_site_type_symbol
  _atom_site_label
  _atom_site_symmetry_multiplicity
  _atom_site_fract_x
  _atom_site_fract_y
  _atom_site_fract_z
  _atom_site_occupancy
  H   H1        1.0  0.9374777383636245  0.8349039682658916  0.15448821459700388  1.0000
  H   H2        1.0  0.16509603214430377  0.10257377097073414  0.15448821459700388  1.0000
  H   H3        1.0  0.8974262294617598  0.06252226149479832  0.15448821459700388  1.0000
  H   H4        1.0  0.6041444048597439  0.16823730118486946  0.4878215479443109  1.0000
  H   H5        1.0  0.831762698575906  0.4359071034833515  0.4878215479443109  1.0000
  H   H6        1.0  0.564092896001776  0.39585559499867917  0.4878215479443109  1.0000
  H   H7        1.0  0.2708110723216651  0.5015706346887503  0.821154881291618  1.0000
  H   H8        1.0  0.49842936511592234  0.7692404369872322  0.821154881291618  1.0000
  H   H9        1.0  0.23075956346369728  0.72918892850256  0.821154881291618  1.0000
  H   H10       1.0  0.06252226064995355  0.16509603132774792  0.8455117854449172  1.0000
  H   H11       1.0  0.8349039683234412  0.8974262296874295  0.8455117854449172  1.0000
  H   H12       1.0  0.1025737710059853  0.9374777391633653  0.8455117854449172  1.0000
  H   H13       1.0  0.395855595075739  0.83176269840877  0.5121784520976103  1.0000
  H   H14       1.0  0.16823730135957693  0.5640928961102881  0.5121784520976103  1.0000
  H   H15       1.0  0.4359071044659689  0.6041444056594845  0.5121784520976103  1.0000
  H   H16       1.0  0.7291889276138178  0.4984293649048892  0.17884511875030315  1.0000
  H   H17       1.0  0.5015706348195605  0.23075956260640723  0.17884511875030315  1.0000
  H   H18       1.0  0.7692404370040477  0.2708110721556036  0.17884511875030315  1.0000
  H   H19       1.0  0.004835961468963351  0.6591072532347634  0.182225673699225  1.0000
  H   H20       1.0  0.3408927470194835  0.34572870747091383  0.182225673699225  1.0000
  H   H21       1.0  0.6542712924128379  0.9951640394728652  0.182225673699225  1.0000
  H   H22       1.0  0.6715026275109228  0.9924405868119047  0.515559007046532  1.0000
  H   H23       1.0  0.007559413559499931  0.6790620409747947  0.515559007046532  1.0000
  H   H24       1.0  0.3209379589089572  0.32849737239184307  0.515559007046532  1.0000
  H   H25       1.0  0.3381692940070422  0.32577391973088266  0.8488923403938391  1.0000
  H   H26       1.0  0.6742260810117291  0.01239537503155703  0.8488923403938391  1.0000
  H   H27       1.0  0.9876046258728215  0.6618307059689844  0.8488923403938391  1.0000
  H   H28       1.0  0.9951640389987815  0.34089274742340014  0.8177743263426961  1.0000
  H   H29       1.0  0.6591072529159994  0.6542712921227257  0.8177743263426961  1.0000
  H   H30       1.0  0.3457287080549071  0.00483596118529831  0.8177743263426961  1.0000
  H   H31       1.0  0.3284973729568221  0.0075594138462587186  0.48444099299538906  1.0000
  H   H32       1.0  0.992440586375983  0.3209379586188449  0.48444099299538906  1.0000
  H   H33       1.0  0.6790620410265257  0.6715026272017964  0.48444099299538906  1.0000
  H   H34       1.0  0.6618307059284407  0.674226079862757  0.15110765964808204  1.0000
  H   H35       1.0  0.3257739194560158  0.9876046256266066  0.15110765964808204  1.0000
  H   H36       1.0  0.012395374594923458  0.3381692946891791  0.15110765964808204  1.0000
  H   H37       1.0  0.15842551428705565  0.6038897629813039  0.1297285789305262  1.0000
  H   H38       1.0  0.3961102375749699  0.5545357518496337  0.1297285789305262  1.0000
  H   H39       1.0  0.4454642481173544  0.8415744853476049  0.1297285789305262  1.0000
  H   H40       1.0  0.825092180718658  0.9372230954939214  0.4630619122778333  1.0000
  H   H41       1.0  0.06277690411498636  0.8878690853535146  0.4630619122778333  1.0000
  H   H42       1.0  0.11213091514573575  0.17490781933110675  0.4630619122778333  1.0000
  H   H43       1.0  0.4917588477470392  0.2705564294774231  0.7963952456251402  1.0000
  H   H44       1.0  0.7294435710349536  0.2212024183457529  0.7963952456251402  1.0000
  H   H45       1.0  0.7787975821096  0.5082411529082481  0.7963952456251402  1.0000
  H   H46       1.0  0.8415744861806894  0.3961102376768597  0.870271421111395  1.0000
  H   H47       1.0  0.603889762892775  0.44546424880852986  0.870271421111395  1.0000
  H   H48       1.0  0.5545357518181285  0.15842551424603463  0.870271421111395  1.0000
  H   H49       1.0  0.17490781921682505  0.0627769040997183  0.5369380877640878  1.0000
  H   H50       1.0  0.9372230963527586  0.112130915304649  0.5369380877640878  1.0000
  H   H51       1.0  0.8878690853220091  0.8250921813270568  0.5369380877640878  1.0000
  H   H52       1.0  0.5082411527207058  0.7294435711807405  0.20360475441678086  1.0000
  H   H53       1.0  0.2705564289005294  0.7787975812478867  0.20360475441678086  1.0000
  H   H54       1.0  0.22120241835814486  0.4917588477499154  0.20360475441678086  1.0000
  H   H55       1.0  0.24555528416464056  0.7253147285871063  0.0486942833348426  1.0000
  H   H56       1.0  0.27468527105400153  0.5202405547308141  0.0486942833348426  1.0000
  H   H57       1.0  0.47975944422847583  0.7544447157960982  0.0486942833348426  1.0000
  H   H58       1.0  0.9122219501627029  0.058648061579344685  0.38202761668214963  1.0000
  H   H59       1.0  0.9413519380178658  0.8535738883079553  0.38202761668214963  1.0000
  H   H60       1.0  0.1464261112568572  0.08777804977960006  0.38202761668214963  1.0000
  H   H61       1.0  0.5788886167027194  0.3919813950832255  0.7153609500294567  1.0000
  H   H62       1.0  0.6080186050462472  0.18690722229145718  0.7153609500294567  1.0000
  H   H63       1.0  0.8130927782207216  0.4211113833567414  0.7153609500294567  1.0000
  H   H64       1.0  0.7544447157708424  0.2746852710065332  0.9513057167070785  1.0000
  H   H65       1.0  0.7253147288814814  0.4797594448628256  0.9513057167070785  1.0000
  H   H66       1.0  0.5202405547851021  0.2455552837975413  0.9513057167070785  1.0000
  H   H67       1.0  0.08777804977277996  0.941351938014295  0.6179723833597716  1.0000
  H   H68       1.0  0.058648061917617164  0.14642611128568422  0.6179723833597716  1.0000
  H   H69       1.0  0.8535738882889828  0.9122219508785635  0.6179723833597716  1.0000
  H   H70       1.0  0.42111138323276354  0.608018604510414  0.2846390500124644  1.0000
  H   H71       1.0  0.39198139542149774  0.8130927783667063  0.2846390500124644  1.0000
  H   H72       1.0  0.18690722224702344  0.5788886173014222  0.2846390500124644  1.0000
  H   H73       1.0  0.1727680046824647  0.8979269742785443  0.020076250360871684  1.0000
  H   H74       1.0  0.1020730258158294  0.2748410310464222  0.020076250360871684  1.0000
  H   H75       1.0  0.7251589694810858  0.827231994853576  0.020076250360871684  1.0000
  H   H76       1.0  0.8394346716024319  0.23126030727078267  0.3534095837081787  1.0000
  H   H77       1.0  0.7687396927796936  0.6081743646235636  0.3534095837081787  1.0000
  H   H78       1.0  0.3918256355875624  0.16056532883707786  0.3534095837081787  1.0000
  H   H79       1.0  0.5061013381424483  0.5645936407746635  0.6867429170554857  1.0000
  H   H80       1.0  0.43540635878744816  0.9415076970629206  0.6867429170554857  1.0000
  H   H81       1.0  0.05849230304948361  0.4938986623409587  0.6867429170554857  1.0000
  H   H82       1.0  0.8272319957852802  0.10207302637961928  0.9799237496810494  1.0000
  H   H83       1.0  0.8979269746519156  0.7251589696117413  0.9799237496810494  1.0000
  H   H84       1.0  0.27484103045439706  0.1727680047400635  0.9799237496810494  1.0000
  H   H85       1.0  0.16056532833305096  0.7687396923228569  0.6465904163337425  1.0000
  H   H86       1.0  0.23126030768805125  0.39182563603459997  0.6465904163337425  1.0000
  H   H87       1.0  0.6081743639582777  0.8394346718210857  0.6465904163337425  1.0000
  H   H88       1.0  0.49389866179303465  0.4354063588189761  0.3132570829864354  1.0000
  H   H89       1.0  0.5645936411480348  0.05849230253071916  0.3132570829864354  1.0000
  H   H90       1.0  0.9415076974182612  0.5061013383172048  0.3132570829864354  1.0000
  H   H91       1.0  0.6053882274880334  0.5258855924806083  0.05940659025803257  1.0000
  H   H92       1.0  0.4741144078787223  0.0795026350075475  0.05940659025803257  1.0000
  H   H93       1.0  0.9204973649925752  0.3946117721787444  0.05940659025803257  1.0000
  H   H94       1.0  0.27205489402804983  0.8592189259844891  0.39273992360533966  1.0000
  H   H95       1.0  0.14078107441873863  0.4128359685114283  0.39273992360533966  1.0000
  H   H96       1.0  0.5871640315325916  0.7279451056826252  0.39273992360533966  1.0000
  H   H97       1.0  0.9387215609480171  0.19255225897672745  0.7260732569526467  1.0000
  H   H98       1.0  0.807447741382603  0.7461693020885697  0.7260732569526467  1.0000
  H   H99       1.0  0.2538306985609729  0.06127843966612699  0.7260732569526467  1.0000
  H   H100      1.0  0.3946117729797115  0.4741144081775553  0.9405934097838885  1.0000
  H   H101      1.0  0.5258855920567607  0.9204973645860921  0.9405934097838885  1.0000
  H   H102      1.0  0.07950263494290775  0.6053882274148952  0.9405934097838885  1.0000
  H   H103      1.0  0.7279451064396951  0.1407810746736745  0.6072600764365815  1.0000
  H   H104      1.0  0.8592189255167444  0.5871640310822113  0.6072600764365815  1.0000
  H   H105      1.0  0.41283596840289133  0.2720548939110144  0.6072600764365815  1.0000
  H   H106      1.0  0.061278439519727945  0.8074477416814362  0.27392674308927445  1.0000
  H   H107      1.0  0.192552259085142  0.2538306985695939  0.27392674308927445  1.0000
  H   H108      1.0  0.746169301906772  0.9387215609920366  0.27392674308927445  1.0000
  H   H109      1.0  0.41305998933609167  0.27252483654861004  0.05960616884363803  1.0000
  H   H110      1.0  0.7274751634706605  0.14053515259642546  0.05960616884363803  1.0000
  H   H111      1.0  0.8594648475525786  0.5869400105218646  0.05960616884363803  1.0000
  H   H112      1.0  0.07972665587610804  0.6058581700524909  0.3929395021909451  1.0000
  H   H113      1.0  0.394141830010677  0.47386848610030624  0.3929395021909451  1.0000
  H   H114      1.0  0.5261315140925951  0.9202733440257456  0.3929395021909451  1.0000
  H   H115      1.0  0.7463933228399724  0.9391915036296324  0.7262728355382521  1.0000
  H   H116      1.0  0.060808496550693314  0.807201819604187  0.7262728355382521  1.0000
  H   H117      1.0  0.1927981805887143  0.2536066769447232  0.7262728355382521  1.0000
  H   H118      1.0  0.5869400105993913  0.7274751630450295  0.940393831198283  1.0000
  H   H119      1.0  0.2725248364648223  0.859464846997214  0.940393831198283  1.0000
  H   H120      1.0  0.14053515238290434  0.41305998907177494  0.940393831198283  1.0000
  H   H121      1.0  0.9202733445916369  0.39414183060567265  0.607060497850976  1.0000
  H   H122      1.0  0.605858169924806  0.5261315134933333  0.607060497850976  1.0000
  H   H123      1.0  0.473868485842888  0.07972665556789414  0.607060497850976  1.0000
  H   H124      1.0  0.2536066776277726  0.060808497028531305  0.273727164503669  1.0000
  H   H125      1.0  0.9391915029951468  0.1927981810539765  0.273727164503669  1.0000
  H   H126      1.0  0.8072018193467686  0.7463933226489162  0.273727164503669  1.0000
  C   C1        1.0  0.0  0.0  0.0  1.0000
  C   C2        1.0  0.6666666669638642  0.33333333357714134  0.333333333347307  1.0000
  C   C3        1.0  0.33333333350388067  0.6666666670810222  0.666666666694614  1.0000
  C   C4        1.0  0.05351568917199089  0.8793368126244733  0.08568659707562071  1.0000
  C   C5        1.0  0.12066318641475907  0.17417887587502975  0.08568659707562071  1.0000
  C   C6        1.0  0.825821123860368  0.9464843106145155  0.08568659707562071  1.0000
  C   C7        1.0  0.7201823557023154  0.2126701466812357  0.41901993042292773  1.0000
  C   C8        1.0  0.7873298533786233  0.5075122094521711  0.41901993042292773  1.0000
  C   C9        1.0  0.49248779035648726  0.27981764353349337  0.41901993042292773  1.0000
  C   C10       1.0  0.3868490231642366  0.5460034801851166  0.7523532637702347  1.0000
  C   C11       1.0  0.4539965199186397  0.8408455429560519  0.7523532637702347  1.0000
  C   C12       1.0  0.1591544568965037  0.6131509770373742  0.7523532637702347  1.0000
  C   C13       1.0  0.9464843107634919  0.12066318696916625  0.9143134029663004  1.0000
  C   C14       1.0  0.8793368135207239  0.8258211237186098  0.9143134029663004  1.0000
  C   C15       1.0  0.17417887607511498  0.05351568897912405  0.9143134029663004  1.0000
  C   C16       1.0  0.27981764384352475  0.7873298539769279  0.5809800696189934  1.0000
  C   C17       1.0  0.21267014655685965  0.49248779014146854  0.5809800696189934  1.0000
  C   C18       1.0  0.5075122095789957  0.7201823560601462  0.5809800696189934  1.0000
  C   C19       1.0  0.6131509773035084  0.453996520473047  0.24764673627168635  1.0000
  C   C20       1.0  0.5460034796272004  0.15915445770211165  0.24764673627168635  1.0000
  C   C21       1.0  0.8408455430389793  0.3868490225562654  0.24764673627168635  1.0000
  C   C22       1.0  0.005977153099978127  0.8123250532077504  0.13139627028671907  1.0000
  C   C23       1.0  0.18767494645316535  0.19365209957364418  0.13139627028671907  1.0000
  C   C24       1.0  0.8063479004262364  0.9940228473971479  0.13139627028671907  1.0000
  C   C25       1.0  0.6726438196303025  0.1456583872645128  0.4647296036340261  1.0000
  C   C26       1.0  0.8543416134170297  0.5269854331507856  0.4647296036340261  1.0000
  C   C27       1.0  0.4730145669223558  0.32735618031612573  0.4647296036340261  1.0000
  C   C28       1.0  0.33931048709222383  0.4789917207683937  0.7980629366134512  1.0000
  C   C29       1.0  0.521008279957046  0.8603187666546664  0.7980629366134512  1.0000
  C   C30       1.0  0.139681234384277  0.6606895138200065  0.7980629366134512  1.0000
  C   C31       1.0  0.9940228468355048  0.1876749463858891  0.8686037297552021  1.0000
  C   C32       1.0  0.8123250534823176  0.8063479000199953  0.8686037297552021  1.0000
  C   C33       1.0  0.19365209911960365  0.0059771532610156065  0.8686037297552021  1.0000
  C   C34       1.0  0.3273561808374424  0.8543416133936509  0.535270396407895  1.0000
  C   C35       1.0  0.14565838705071532  0.473014567507378  0.535270396407895  1.0000
  C   C36       1.0  0.5269854330131271  0.6726438192775138  0.535270396407895  1.0000
  C   C37       1.0  0.6606895133755212  0.5210082798897699  0.20193706306058798  1.0000
  C   C38       1.0  0.47899172051069894  0.13968123400349722  0.20193706306058798  1.0000
  C   C39       1.0  0.860318766083468  0.339310486838157  0.20193706306058798  1.0000
  C   C40       1.0  0.043713377665003744  0.7130620540973625  0.14705169202307725  1.0000
  C   C41       1.0  0.2869379451296362  0.3306513228065594  0.14705169202307725  1.0000
  C   C42       1.0  0.669348676652478  0.9562866222100967  0.14705169202307725  1.0000
  C   C43       1.0  0.7103800441953281  0.04639538815412478  0.48038502537038424  1.0000
  C   C44       1.0  0.9536046120935007  0.6639846563837009  0.48038502537038424  1.0000
  C   C45       1.0  0.3360153436808593  0.28961995619359854  0.48038502537038424  1.0000
  C   C46       1.0  0.3770467102030825  0.37972872059348156  0.8137183587176914  1.0000
  C   C47       1.0  0.6202712786335168  0.9973179898875815  0.8137183587176914  1.0000
  C   C48       1.0  0.002682010220875665  0.6229532896974793  0.8137183587176914  1.0000
  C   C49       1.0  0.9562866222704792  0.28693794549627716  0.8529483080188438  1.0000
  C   C50       1.0  0.7130620538839418  0.6693486767870802  0.8529483080188438  1.0000
  C   C51       1.0  0.330651323283005  0.043713377383542834  0.8529483080188438  1.0000
  C   C52       1.0  0.28961995627241677  0.9536046125040387  0.5196149746715368  1.0000
  C   C53       1.0  0.04639538784198238  0.33601534320993875  0.5196149746715368  1.0000
  C   C54       1.0  0.6639846567868857  0.710380044464565  0.5196149746715368  1.0000
  C   C55       1.0  0.6229532888104956  0.620271279000158  0.18628164132422978  1.0000
  C   C56       1.0  0.3797287203800611  0.002682009706057943  0.18628164132422978  1.0000
  C   C57       1.0  0.9973179902468692  0.3770467109606842  0.18628164132422978  1.0000
  C   C58       1.0  0.1303622128460306  0.68221299903419  0.11758026871756441  1.0000
  C   C59       1.0  0.31778700069254645  0.44814921358444265  0.11758026871756441  1.0000
  C   C60       1.0  0.551850786440803  0.8696377875599101  0.11758026871756441  1.0000
  C   C61       1.0  0.797028879376355  0.015546333090952366  0.4509136020648714  1.0000
  C   C62       1.0  0.9844536676564107  0.781482547161584  0.4509136020648714  1.0000
  C   C63       1.0  0.2185174529369223  0.20297112047888782  0.4509136020648714  1.0000
  C   C64       1.0  0.4636955463060142  0.34887966553030914  0.7842469354121785  1.0000
  C   C65       1.0  0.65112033415253  0.11481588008056173  0.7842469354121785  1.0000
  C   C66       1.0  0.8851841199007866  0.5363044540560292  0.7842469354121785  1.0000
  C   C67       1.0  0.8696377870894523  0.3177870005594496  0.8824197313243567  1.0000
  C   C68       1.0  0.6822129992429365  0.551850786009197  0.8824197313243567  1.0000
  C   C69       1.0  0.44814921402694197  0.13036221309825358  0.8824197313243567  1.0000
  C   C70       1.0  0.20297112016948513  0.9844536675672113  0.5490863979770497  1.0000
  C   C71       1.0  0.015546332811334239  0.21851745349657964  0.5490863979770497  1.0000
  C   C72       1.0  0.7814825469985606  0.7970288791147517  0.5490863979770497  1.0000
  C   C73       1.0  0.5363044536294687  0.6511203340633304  0.2157530646297426  1.0000
  C   C74       1.0  0.34887966578295293  0.8851841195130778  0.2157530646297426  1.0000
  C   C75       1.0  0.11481588056695835  0.4636955466021343  0.2157530646297426  1.0000
  C   C76       1.0  0.17951427441034945  0.7501782962465358  0.07226719589745116  1.0000
  C   C77       1.0  0.24982170336025625  0.4293359777356035  0.07226719589745116  1.0000
  C   C78       1.0  0.5706640216765123  0.8204857251318793  0.07226719589745116  1.0000
  C   C79       1.0  0.8461809413303167  0.08351162923877416  0.4056005292447582  1.0000
  C   C80       1.0  0.9164883703241206  0.7626693113127448  0.4056005292447582  1.0000
  C   C81       1.0  0.23733068870489366  0.15381905911538116  0.4056005292447582  1.0000
  C   C82       1.0  0.5128476078703331  0.416844962742655  0.7389338625920653  1.0000
  C   C83       1.0  0.5831550373525018  0.09600264529624662  0.7389338625920653  1.0000
  C   C84       1.0  0.9039973551364959  0.48715239162799856  0.7389338625920653  1.0000
  C   C85       1.0  0.8204857255251335  0.24982170334710377  0.9277328041444699  1.0000
  C   C86       1.0  0.7501782965752268  0.5706640218580362  0.9277328041444699  1.0000
  C   C87       1.0  0.4293359782589706  0.17951427446176021  0.9277328041444699  1.0000
  C   C88       1.0  0.1538190586051663  0.9164883703548655  0.5943994707971629  1.0000
  C   C89       1.0  0.08351162961136246  0.2373306882808948  0.5943994707971629  1.0000
  C   C90       1.0  0.7626693117628512  0.8461809415427824  0.5943994707971629  1.0000
  C   C91       1.0  0.4871523920651499  0.5831550368509846  0.26106613744985585  1.0000
  C   C92       1.0  0.41684496311524316  0.903997355361917  0.26106613744985585  1.0000
  C   C93       1.0  0.09600264479898706  0.5128476079656411  0.26106613744985585  1.0000
  C   C94       1.0  0.14030592973452455  0.8477547582681554  0.05620878476259974  1.0000
  C   C95       1.0  0.1522452414995871  0.29255117199214  0.05620878476259974  1.0000
  C   C96       1.0  0.7074488278233635  0.8596940699182472  0.05620878476259974  1.0000
  C   C97       1.0  0.8069725966544917  0.18108809126039385  0.38954211810990674  1.0000
  C   C98       1.0  0.8189119084634514  0.6258845055692814  0.38954211810990674  1.0000
  C   C99       1.0  0.3741154943194829  0.19302740283722494  0.38954211810990674  1.0000
  C   C100      1.0  0.4736392631945082  0.5144214247642747  0.7228754514572138  1.0000
  C   C101      1.0  0.48557857500346774  0.9592178390731623  0.7228754514572138  1.0000
  C   C102      1.0  0.04078216085949921  0.5263607363411057  0.7228754514572138  1.0000
  C   C103      1.0  0.8596940698113155  0.15224524239000808  0.9437912152793214  1.0000
  C   C104      1.0  0.8477547575139911  0.7074488276014996  0.9437912152793214  1.0000
  C   C105      1.0  0.2925511721121194  0.14030592967539243  0.9437912152793214  1.0000
  C   C106      1.0  0.19302740328099116  0.8189119083332458  0.6104578819320142  1.0000
  C   C107      1.0  0.18108809200429357  0.3741154950888822  0.6104578819320142  1.0000
  C   C108      1.0  0.6258845056160001  0.8069725967564146  0.6104578819320142  1.0000
  C   C109      1.0  0.5263607367409747  0.4855785748293649  0.2771245485847073  1.0000
  C   C110      1.0  0.5144214245423724  0.040782161585001406  0.2771245485847073  1.0000
  C   C111      1.0  0.9592178381540788  0.47363926325253375  0.2771245485847073  1.0000
  C   C112      1.0  0.6323702183522536  0.44158570989424006  0.05932643207095635  1.0000
  C   C113      1.0  0.5584142907236752  0.19078450932397112  0.05932643207095635  1.0000
  C   C114      1.0  0.8092154908937591  0.3676297815132129  0.05932643207095635  1.0000
  C   C115      1.0  0.29903688581417487  0.7749190433981209  0.39265976541826336  1.0000
  C   C116      1.0  0.22508095673142958  0.524117841763328  0.39265976541826336  1.0000
  C   C117      1.0  0.4758821583556804  0.7009631150170937  0.39265976541826336  1.0000
  C   C118      1.0  0.9657035518122372  0.10825237639035928  0.7259930987655704  1.0000
  C   C119      1.0  0.8917476236952937  0.8574511753404692  0.7259930987655704  1.0000
  C   C120      1.0  0.1425488248517997  0.03429644793607154  0.7259930987655704  1.0000
  C   C121      1.0  0.3676297806613245  0.5584142896993995  0.9406735679709648  1.0000
  C   C122      1.0  0.44158570974406974  0.8092154913341925  0.9406735679709648  1.0000
  C   C123      1.0  0.19078450865208094  0.6323702191449506  0.9406735679709648  1.0000
  C   C124      1.0  0.70096311465357  0.22508095726004265  0.6073402346236577  1.0000
  C   C125      1.0  0.7749190432040532  0.4758821578303116  0.6073402346236577  1.0000
  C   C126      1.0  0.5241178421120645  0.29903688564106984  0.6073402346236577  1.0000
  C   C127      1.0  0.034296448123245685  0.8917476232032804  0.2740069012763507  1.0000
  C   C128      1.0  0.10825237624018909  0.14254882425317025  0.2740069012763507  1.0000
  C   C129      1.0  0.8574511750836831  0.9657035516575679  0.2740069012763507  1.0000
  C   C130      1.0  0.5240755925004896  0.2990105567688858  0.059340718770246846  1.0000
  C   C131      1.0  0.7009894434713232  0.22506503623904683  0.059340718770246846  1.0000
  C   C132      1.0  0.7749349634656132  0.4759244066589675  0.059340718770246846  1.0000
  C   C133      1.0  0.19074225996241087  0.6323438902727667  0.3926740521175539  1.0000
  C   C134      1.0  0.3676561100113396  0.5583983697429276  0.3926740521175539  1.0000
  C   C135      1.0  0.44160163092753435  0.8092577401628482  0.3926740521175539  1.0000
  C   C136      1.0  0.8574089260043702  0.965677223849908  0.726007385464861  1.0000
  C   C137      1.0  0.034322776019093997  0.8917317021822845  0.726007385464861  1.0000
  C   C138      1.0  0.10826829795591571  0.14259107414635014  0.726007385464861  1.0000
  C   C139      1.0  0.4759244065130885  0.7009894428247537  0.9406592812716742  1.0000
  C   C140      1.0  0.2990105569964217  0.7749349644191168  0.9406592812716742  1.0000
  C   C141      1.0  0.2250650364698698  0.5240755929346721  0.9406592812716742  1.0000
  C   C142      1.0  0.8092577399730722  0.3676561093208729  0.6073259479243672  1.0000
  C   C143      1.0  0.6323438904564053  0.4416016309152359  0.6073259479243672  1.0000
  C   C144      1.0  0.5583983690079486  0.19074225943079126  0.6073259479243672  1.0000
  C   C145      1.0  0.14259107354146983  0.034322776808255566  0.2739926145770602  1.0000
  C   C146      1.0  0.9656772239163889  0.1082682974113551  0.2739926145770602  1.0000
  C   C147      1.0  0.8917317025118292  0.8574089265118136  0.2739926145770602  1.0000
  P   P1        1.0  0.0  0.0  0.05902429128161983  1.0000
  P   P2        1.0  0.6666666669638642  0.33333333357714134  0.39235762462892687  1.0000
  P   P3        1.0  0.33333333350388067  0.6666666670810222  0.725690957976234  1.0000
  P   P4        1.0  0.0  0.0  0.9409757083924192  1.0000
  P   P5        1.0  0.33333333350388067  0.6666666670810222  0.6076423750451122  1.0000
  P   P6        1.0  0.6666666669638642  0.33333333357714134  0.2743090416978051  1.0000
