data_image0
_chemical_formula_structural       H100C122N8P4S8
_chemical_formula_sum              "H100 C122 N8 P4 S8"
_cell_length_a       11.277780736209502
_cell_length_b       12.964643773123832
_cell_length_c       17.387368291887995
_cell_angle_alpha    91.95619929331541
_cell_angle_beta     90.56443029460047
_cell_angle_gamma    99.50161140385187

_space_group_name_H-M_alt    "P 1"
_space_group_IT_number       1

loop_
  _space_group_symop_operation_xyz
  'x, y, z'

loop_
  _atom_site_type_symbol
  _atom_site_label
  _atom_site_symmetry_multiplicity
  _atom_site_fract_x
  _atom_site_fract_y
  _atom_site_fract_z
  _atom_site_occupancy
  H   H1        1.0  0.6019245192960835  0.22231142497750864  0.843832234975258  1.0000
  H   H2        1.0  0.39807548062623155  0.7776885749379782  0.15616776493641124  1.0000
  H   H3        1.0  0.903277177739383  0.9935687414196706  0.7569686478807839  1.0000
  H   H4        1.0  0.09672282321669624  0.006431259279082192  0.24303135202821066  1.0000
  H   H5        1.0  0.030340673279994238  0.9115897062189835  0.6646297316023564  1.0000
  H   H6        1.0  0.9696593266423208  0.08841029369650302  0.33537026830931294  1.0000
  H   H7        1.0  0.10312771561405375  0.0050429968725229715  0.5465774052371344  1.0000
  H   H8        1.0  0.8968722851952479  0.9949570030443904  0.45342259467587515  1.0000
  H   H9        1.0  0.05174911315559765  0.18034456564161758  0.5223308939500342  1.0000
  H   H10       1.0  0.9482508867667173  0.8196554342738691  0.47766910596163525  1.0000
  H   H11       1.0  0.9250988789014122  0.2625447439934305  0.6168818442682779  1.0000
  H   H12       1.0  0.07490112102090286  0.7374552559220561  0.3831181556433914  1.0000
  H   H13       1.0  0.8853321056970123  0.2458536016075138  0.9822233919092336  1.0000
  H   H14       1.0  0.11466789422530273  0.754146398307973  0.017776608002435856  1.0000
  H   H15       1.0  0.918878478229705  0.3764920496780354  0.09118818263646039  1.0000
  H   H16       1.0  0.08112152170569492  0.6235079502712798  0.90881181785073  1.0000
  H   H17       1.0  0.8631937917321414  0.5536119900223316  0.07692283018673893  1.0000
  H   H18       1.0  0.13680620819017372  0.446388009893155  0.9230771697249304  1.0000
  H   H19       1.0  0.761517541295564  0.5939776963038154  0.9561197053093271  1.0000
  H   H20       1.0  0.2384824586398358  0.4060223036454998  0.04388029517786333  1.0000
  H   H21       1.0  0.7298361748799024  0.4614732796261308  0.846375529468432  1.0000
  H   H22       1.0  0.2701638251891903  0.5385267210711954  0.15362447043922245  1.0000
  H   H23       1.0  0.6440169947725801  0.2571687197080675  0.6136625123126102  1.0000
  H   H24       1.0  0.3559830051497349  0.7428312802074192  0.3863374875990592  1.0000
  H   H25       1.0  0.6715046856149776  0.29201656260715503  0.475662686260826  1.0000
  H   H26       1.0  0.32849531519432407  0.7079834373097584  0.5243373136521835  1.0000
  H   H27       1.0  0.6847375132432177  0.1455901657518837  0.38127103700814907  1.0000
  H   H28       1.0  0.31526248669218215  0.8544098341974316  0.6187289634790413  1.0000
  H   H29       1.0  0.6686052502325937  0.9642912169899026  0.4250507628054114  1.0000
  H   H30       1.0  0.3313947498364989  0.035708783707423565  0.574949237102243  1.0000
  H   H31       1.0  0.6403000821066762  0.9283744088747073  0.5655428994042465  1.0000
  H   H32       1.0  0.35969991781563876  0.07162559104077938  0.43445710050742287  1.0000
  H   H33       1.0  0.3989935405022081  0.9283107790801628  0.7457931322562465  1.0000
  H   H34       1.0  0.6010064594201069  0.07168922083532403  0.25420686765542294  1.0000
  H   H35       1.0  0.19090859404789892  0.9599431018140893  0.7751339620311618  1.0000
  H   H36       1.0  0.8090914058744161  0.04005689810139732  0.22486603788050763  1.0000
  H   H37       1.0  0.14399960741107842  0.14187879594708216  0.7698621517134975  1.0000
  H   H38       1.0  0.8560003925243215  0.8581212040022331  0.23013784877369295  1.0000
  H   H39       1.0  0.30018586165423045  0.28664243926967614  0.7353432929035177  1.0000
  H   H40       1.0  0.6998141382680845  0.7133575606458106  0.2646567070081516  1.0000
  H   H41       1.0  0.505011477725842  0.2559453924578863  0.7022536460008454  1.0000
  H   H42       1.0  0.4949885222095579  0.744054607491429  0.29774635448634507  1.0000
  H   H43       1.0  0.37351475231707787  0.28224935089401  0.16354403180086385  1.0000
  H   H44       1.0  0.6264852476052372  0.7177506490214768  0.8364559681108055  1.0000
  H   H45       1.0  0.05126195050423438  0.5064652777601165  0.24992870045923885  1.0000
  H   H46       1.0  0.9487380494180808  0.49353472215537025  0.7500712994524305  1.0000
  H   H47       1.0  0.927114099479535  0.579874229402018  0.34765569178198424  1.0000
  H   H48       1.0  0.07288590044277989  0.42012577051346867  0.6523443081296851  1.0000
  H   H49       1.0  0.8688863609275892  0.48183411160913786  0.4666422588105839  1.0000
  H   H50       1.0  0.1311136389947258  0.5181658883063489  0.5333577411010856  1.0000
  H   H51       1.0  0.9318161015098839  0.30956678530692416  0.4855175744312487  1.0000
  H   H52       1.0  0.06818389841243092  0.6904332146085624  0.5144824254804206  1.0000
  H   H53       1.0  0.05824693988052181  0.23675329852325855  0.38640918065394325  1.0000
  H   H54       1.0  0.9417530600417933  0.7632467013922282  0.6135908192577261  1.0000
  H   H55       1.0  0.08323482208045282  0.2608258806530379  0.02050514929525345  1.0000
  H   H56       1.0  0.9167651778418621  0.7391741192624488  0.979494850616416  1.0000
  H   H57       1.0  0.0629342112165894  0.1361935621546898  0.9078245230166856  1.0000
  H   H58       1.0  0.9370657887057255  0.8638064377607968  0.09217547689498375  1.0000
  H   H59       1.0  0.1364632329561222  0.9651659809401933  0.9169448117145724  1.0000
  H   H60       1.0  0.863536766966193  0.03483401897529348  0.08305518819709688  1.0000
  H   H61       1.0  0.24025140098400105  0.9255394319722373  0.03728736015407453  1.0000
  H   H62       1.0  0.7597485989383138  0.07446056794324941  0.9627126397575949  1.0000
  H   H63       1.0  0.26204984960276  0.05267522971670343  0.14958004840230477  1.0000
  H   H64       1.0  0.7379501503195551  0.9473247701987834  0.8504199515093647  1.0000
  H   H65       1.0  0.36541605694245805  0.5588502689908506  0.45304396026716065  1.0000
  H   H66       1.0  0.6345839429798569  0.4411497309246361  0.5469560396445087  1.0000
  H   H67       1.0  0.349735790462015  0.5062850926965068  0.5904813637772873  1.0000
  H   H68       1.0  0.6502642096070776  0.4937149080008194  0.409518636130367  1.0000
  H   H69       1.0  0.31207908346625396  0.3175845959759081  0.6200799937486475  1.0000
  H   H70       1.0  0.687920916456061  0.6824154039395784  0.37992000616302185  1.0000
  H   H71       1.0  0.29034737652057346  0.18215388085183984  0.5149786480359502  1.0000
  H   H72       1.0  0.7096526234017414  0.8178461190636468  0.48502135187571915  1.0000
  H   H73       1.0  0.30702581775548576  0.2333130538922595  0.3786295948686752  1.0000
  H   H74       1.0  0.6929741821668293  0.7666869460232272  0.6213704050429942  1.0000
  H   H75       1.0  0.5044950165343398  0.27668643295368084  0.33219520518354023  1.0000
  H   H76       1.0  0.4955049833879751  0.7233135669618057  0.667804794728129  1.0000
  H   H77       1.0  0.7108147052047983  0.26123429572156753  0.2885997755943298  1.0000
  H   H78       1.0  0.2891852947175166  0.7387657041939191  0.7114002243173396  1.0000
  H   H79       1.0  0.8259721012140311  0.3984567490565125  0.21311625264392473  1.0000
  H   H80       1.0  0.17402789870828378  0.6015432508589741  0.7868837472677446  1.0000
  H   H81       1.0  0.7387973313380305  0.5564332720298034  0.17999686864201186  1.0000
  H   H82       1.0  0.2612026685973695  0.44356672791951174  0.8200031318451786  1.0000
  H   H83       1.0  0.5304562466718766  0.5725561212967086  0.22168685844886668  1.0000
  H   H84       1.0  0.46954375415050986  0.42744387865403327  0.7783131420396638  1.0000
  H   H85       1.0  0.4157263155872605  0.6394548684847187  0.902639078166871  1.0000
  H   H86       1.0  0.5842736843350546  0.3605451314307681  0.09736092174479845  1.0000
  H   H87       1.0  0.5512350989407815  0.5652479983068347  0.99070949506328  1.0000
  H   H88       1.0  0.4487649009815335  0.4347520016086519  0.00929050484838945  1.0000
  H   H89       1.0  0.6573799872123984  0.6749798571024275  0.09903235362549517  1.0000
  H   H90       1.0  0.3426200127099166  0.3250201428130592  0.9009676462861741  1.0000
  H   H91       1.0  0.6262596576233642  0.8597831195411609  0.11795336933759501  1.0000
  H   H92       1.0  0.37374034231203573  0.1402168804081542  0.8820466311495954  1.0000
  H   H93       1.0  0.4915305261234846  0.9336257829917749  0.029785808771242303  1.0000
  H   H94       1.0  0.508469473945608  0.0663742177055513  0.970214191136412  1.0000
  H   H95       1.0  0.3571791145826043  0.9175836171144167  0.9199330153944907  1.0000
  H   H96       1.0  0.6428208854995733  0.08241638361673796  0.08006698508868472  1.0000
  H   H97       1.0  0.2822770796321633  0.7893276533723158  0.8926634883207412  1.0000
  H   H98       1.0  0.7177229203032365  0.2106723465769993  0.10733651216644917  1.0000
  H   H99       1.0  0.4155388346103494  0.8439361981834109  0.8459559003233447  1.0000
  H   H100      1.0  0.5844611653119656  0.15606380173207587  0.1540440995883246  1.0000
  C   C1        1.0  0.8893035941049142  0.25330972009503944  0.8004094988246839  1.0000
  C   C2        1.0  0.11069640581740066  0.7466902798204472  0.19959050108698537  1.0000
  C   C3        1.0  0.686859934913963  0.2166004026533466  0.8168915527446352  1.0000
  C   C4        1.0  0.313140065008352  0.7833995972621401  0.1831084471670341  1.0000
  C   C5        1.0  0.7123630788266938  0.1568137682631325  0.7545605645872534  1.0000
  C   C6        1.0  0.2876369210956212  0.8431862316523542  0.24543943532441598  1.0000
  C   C7        1.0  0.9067775442197263  0.13138504202930118  0.690664449877397  1.0000
  C   C8        1.0  0.09322245584936634  0.8686149586680251  0.3093355500302574  1.0000
  C   C9        1.0  0.9348756529185389  0.03290751755305264  0.7048889575390533  1.0000
  C   C10       1.0  0.0651243470037762  0.967092482362434  0.2951110423726161  1.0000
  C   C11       1.0  0.005602735115452258  0.9873479670166877  0.6525160343238305  1.0000
  C   C12       1.0  0.9943972648068626  0.012652032898798992  0.3474839655878389  1.0000
  C   C13       1.0  0.0475024724559202  0.040516997947180174  0.5871516587429775  1.0000
  C   C14       1.0  0.9524975274663948  0.9594830019683066  0.41284834116869185  1.0000
  C   C15       1.0  0.018705318078751188  0.139217869465057  0.5735129202609152  1.0000
  C   C16       1.0  0.9812946819903415  0.8607821312322691  0.42648707964673915  1.0000
  C   C17       1.0  0.9483302928730839  0.1853775603003409  0.6255543458227967  1.0000
  C   C18       1.0  0.05166970704923109  0.814622439615146  0.37444565408887265  1.0000
  C   C19       1.0  0.806773295436881  0.34786121881830306  0.9087365235643059  1.0000
  C   C20       1.0  0.19322670448543403  0.6521387810971838  0.09126347634736344  1.0000
  C   C21       1.0  0.8587790491992806  0.3224599679402475  0.9771746524461427  1.0000
  C   C22       1.0  0.14122095072303434  0.6775400319752393  0.022825347465526773  1.0000
  C   C23       1.0  0.8773122715535138  0.3964122074208923  0.03802470561914922  1.0000
  C   C24       1.0  0.12268772836880126  0.6035877924945945  0.9619752942925203  1.0000
  C   C25       1.0  0.8437273604716914  0.49456065127693893  0.030279170154219232  1.0000
  C   C26       1.0  0.15627263946370865  0.5054393486723763  0.9697208303329711  1.0000
  C   C27       1.0  0.7890191649228231  0.5179091811225228  0.9621188477842845  1.0000
  C   C28       1.0  0.21098083499949186  0.48209081879296384  0.037881152127384986  1.0000
  C   C29       1.0  0.7703005529967714  0.44459298781335244  0.9007370326079829  1.0000
  C   C30       1.0  0.22969944692554364  0.5554070121021343  0.09926296730368639  1.0000
  C   C31       1.0  0.6397850970230528  0.0895468867822911  0.5978191409256827  1.0000
  C   C32       1.0  0.3602149028992623  0.9104531131331955  0.4021808589859867  1.0000
  C   C33       1.0  0.6482173897398846  0.19214784088058987  0.5728494494201288  1.0000
  C   C34       1.0  0.3517826112292795  0.8078521598519914  0.42715055106438665  1.0000
  C   C35       1.0  0.6644203913278275  0.21210753498437304  0.4950243263429747  1.0000
  C   C36       1.0  0.33557960859448743  0.7878924649311136  0.5049756735686945  1.0000
  C   C37       1.0  0.6721940907416365  0.13015677306519322  0.44206245773837954  1.0000
  C   C38       1.0  0.3278059091806785  0.8698432268502936  0.5579375421732897  1.0000
  C   C39       1.0  0.663826521959288  0.027987089766396654  0.46690022079912313  1.0000
  C   C40       1.0  0.3361734779630269  0.9720129101490902  0.5330997791125464  1.0000
  C   C41       1.0  0.647828043062991  0.007551117433812121  0.5446954505809399  1.0000
  C   C42       1.0  0.352171956859324  0.9924488824816746  0.45530454933072945  1.0000
  C   C43       1.0  0.46466403453040434  0.08887790845258971  0.7217873936692631  1.0000
  C   C44       1.0  0.5353359653919108  0.9111220914628969  0.27821260624240624  1.0000
  C   C45       1.0  0.3756718242991575  0.0063814116014299736  0.7426570301519989  1.0000
  C   C46       1.0  0.6243281756231575  0.9936185883140567  0.2573429697596705  1.0000
  C   C47       1.0  0.2601438184301074  0.02455056797226603  0.7594228844452103  1.0000
  C   C48       1.0  0.7398561814922074  0.9754494319432206  0.24057711546645907  1.0000
  C   C49       1.0  0.23328462031356564  0.12552048378393235  0.7563586551249799  1.0000
  C   C50       1.0  0.7667153796087494  0.8744795161315543  0.2436413447866894  1.0000
  C   C51       1.0  0.3219144147649056  0.20783934990737257  0.7361893888552469  1.0000
  C   C52       1.0  0.6780855851574094  0.7921606500081142  0.26381061105642245  1.0000
  C   C53       1.0  0.4372505338713001  0.19030997205472347  0.7180001295407401  1.0000
  C   C54       1.0  0.5627494669380014  0.8096900278621899  0.2819998703722694  1.0000
  C   C55       1.0  0.0834031052342964  0.25538312849934863  0.19859282772372075  1.0000
  C   C56       1.0  0.9165968947011035  0.7446168714499667  0.8014071727634696  1.0000
  C   C57       1.0  0.28718925143629187  0.2874127597291868  0.188762272903562  1.0000
  C   C58       1.0  0.7128107486328007  0.7125872409681394  0.8112377270040922  1.0000
  C   C59       1.0  0.25873074556461323  0.34512057199091056  0.251396698536147  1.0000
  C   C60       1.0  0.7412692552446885  0.6548794279260027  0.7486033013768625  1.0000
  C   C61       1.0  0.061923433230739545  0.36791839196847453  0.31354977596426664  1.0000
  C   C62       1.0  0.9380765668383532  0.6320816087288517  0.6864502239433877  1.0000
  C   C63       1.0  0.02590515251627666  0.4640987515058722  0.30186733924749104  1.0000
  C   C64       1.0  0.9740948474191233  0.535901248443443  0.6981326612396993  1.0000
  C   C65       1.0  0.9559895399318695  0.5049675164388615  0.35731089878811323  1.0000
  C   C66       1.0  0.04401045999044548  0.49503248347662526  0.6426891011235562  1.0000
  C   C67       1.0  0.9225857767473411  0.4494844055718913  0.4232233900990349  1.0000
  C   C68       1.0  0.07741422332175152  0.5505155951254348  0.5767766098086193  1.0000
  C   C69       1.0  0.9584886944954645  0.35279816176385437  0.43410613419288113  1.0000
  C   C70       1.0  0.04151130542685054  0.6472018381516322  0.5658938657187882  1.0000
  C   C71       1.0  0.02854301521983719  0.31165162690520903  0.3791279215001064  1.0000
  C   C72       1.0  0.9714569847024778  0.6883483730102777  0.620872078411563  1.0000
  C   C73       1.0  0.17195110483160672  0.16226834139919966  0.09113700631417467  1.0000
  C   C74       1.0  0.8280488950907082  0.837731658516287  0.9088629935974948  1.0000
  C   C75       1.0  0.11675639349417247  0.1869625655146099  0.023546515590556923  1.0000
  C   C76       1.0  0.8832436064281425  0.813037434400877  0.9764534843211126  1.0000
  C   C77       1.0  0.10539529781330643  0.1162354057249074  0.9606523742336079  1.0000
  C   C78       1.0  0.8946047021090086  0.8837645941905793  0.03934762567806133  1.0000
  C   C79       1.0  0.1486022790474042  0.021668612814011286  0.965505743025302  1.0000
  C   C80       1.0  0.8513977208749108  0.9783313871014754  0.03449425688636733  1.0000
  C   C81       1.0  0.20531183521570626  0.9987778446336735  0.033088876673147936  1.0000
  C   C82       1.0  0.7946881647066086  0.0012221552818130622  0.9669111232385215  1.0000
  C   C83       1.0  0.21750984137336613  0.06903416166544554  0.09641519517002504  1.0000
  C   C84       1.0  0.7824901585489489  0.9309658382500412  0.9035848047416443  1.0000
  C   C85       1.0  0.33900617627372975  0.3999498388522864  0.4080590101446298  1.0000
  C   C86       1.0  0.6609938236616701  0.6000501610970289  0.5919409903425606  1.0000
  C   C87       1.0  0.35029751471085785  0.4765625135242051  0.46759716640858356  1.0000
  C   C88       1.0  0.6497024862452213  0.5234374871745476  0.5324028335004108  1.0000
  C   C89       1.0  0.3410624362653874  0.44696033505387156  0.5439406675521457  1.0000
  C   C90       1.0  0.6589375645439142  0.5530396648630418  0.45605933236086377  1.0000
  C   C91       1.0  0.3200187853213727  0.3410984045408466  0.5606944026514094  1.0000
  C   C92       1.0  0.6799812146009423  0.65890159537464  0.43930559726026  1.0000
  C   C93       1.0  0.3082109137451448  0.2646226042837939  0.501349182857497  1.0000
  C   C94       1.0  0.6917890861771702  0.7353773956316927  0.49865081705417236  1.0000
  C   C95       1.0  0.3175304273293908  0.2934787927788606  0.4248503649577655  1.0000
  C   C96       1.0  0.6824695725929241  0.706521207136626  0.5751496349539038  1.0000
  C   C97       1.0  0.5047316571823984  0.4260316374735407  0.27905602430099263  1.0000
  C   C98       1.0  0.4952683427399166  0.5739683624419459  0.7209439756106768  1.0000
  C   C99       1.0  0.5549465092424638  0.33811514061179265  0.2986555713079283  1.0000
  C   C100      1.0  0.44505349069293626  0.6618848593375226  0.7013444291792622  1.0000
  C   C101      1.0  0.6703699921246834  0.32908337952853717  0.2743528228346668  1.0000
  C   C102      1.0  0.3296300077976317  0.6709166203869495  0.7256471770770027  1.0000
  C   C103      1.0  0.7361636602150259  0.40729439742955403  0.23153688427840394  1.0000
  C   C104      1.0  0.263836339707289  0.5927056024859326  0.7684631156332654  1.0000
  C   C105      1.0  0.6866684812197636  0.49517761022609236  0.21285381437159973  1.0000
  C   C106      1.0  0.3133315187025513  0.5048223896893943  0.7871461855400697  1.0000
  C   C107      1.0  0.5708116985952228  0.5045881994047886  0.23608649560341977  1.0000
  C   C108      1.0  0.4291883014738697  0.4954118012925376  0.7639135043042347  1.0000
  C   C109      1.0  0.44594563990536795  0.7925200280221163  0.9589437511115643  1.0000
  C   C110      1.0  0.554054360016947  0.20747997189337045  0.04105624880010509  1.0000
  C   C111      1.0  0.4625840416048661  0.6879525795029016  0.949674992935504  1.0000
  C   C112      1.0  0.5374159583305338  0.3120474204464134  0.050325007551686396  1.0000
  C   C113      1.0  0.5376199230734406  0.6459443887659851  0.9998343030852562  1.0000
  C   C114      1.0  0.46238007686195925  0.3540556111833301  0.00016569740193407158  1.0000
  C   C115      1.0  0.5970231196552442  0.7072498084150493  0.060678166244074495  1.0000
  C   C116      1.0  0.40297688026707074  0.2927501915004374  0.9393218336675949  1.0000
  C   C117      1.0  0.5798094463211348  0.8108269972363231  0.07122836856314825  1.0000
  C   C118      1.0  0.4201905536142652  0.18917300271299206  0.9287716319240422  1.0000
  C   C119      1.0  0.5045405579616115  0.8525742723485724  0.020891153889040892  1.0000
  C   C120      1.0  0.4954594419607035  0.14742572756691416  0.9791088460226283  1.0000
  C   C121      1.0  0.3706916341514148  0.8385811723161812  0.9018643155103442  1.0000
  C   C122      1.0  0.6293083657709002  0.16141882759930565  0.09813568440132525  1.0000
  N   N1        1.0  0.8374367119229336  0.17962272431042137  0.7455569930636368  1.0000
  N   N2        1.0  0.16256328799938136  0.8203772756050652  0.25444300684803256  1.0000
  N   N3        1.0  0.7935905041470172  0.2737434950122142  0.8447702827367004  1.0000
  N   N4        1.0  0.206409495775298  0.7262565049032725  0.1552297171749689  1.0000
  N   N5        1.0  0.13300105074741797  0.32477400837693826  0.25665286941840615  1.0000
  N   N6        1.0  0.8669989491748971  0.6752259915385485  0.7433471304932632  1.0000
  N   N7        1.0  0.18129094564525633  0.23361385469131873  0.15675069085097335  1.0000
  N   N8        1.0  0.8187090542770586  0.7663861452241679  0.843249309060696  1.0000
  P   P1        1.0  0.6126793653319088  0.05909305207758299  0.6984443914008709  1.0000
  P   P2        1.0  0.3873206345904063  0.9409069478379036  0.3015556085107984  1.0000
  P   P3        1.0  0.3550409728326722  0.4423161833517916  0.3096882334419286  1.0000
  P   P4        1.0  0.6449590271027277  0.5576838165975235  0.6903117670452618  1.0000
  S   S1        1.0  0.03381601370086456  0.30659856059511514  0.8099259987129399  1.0000
  S   S2        1.0  0.9661839862214504  0.6934014393203715  0.19007400119872953  1.0000
  S   S3        1.0  0.628589720348618  0.9144300565824182  0.7198970226265131  1.0000
  S   S4        1.0  0.37141027957369693  0.0855699433330685  0.2801029772851563  1.0000
  S   S5        1.0  0.9383135616159394  0.20839668513452864  0.18347044560815803  1.0000
  S   S6        1.0  0.061686438306375574  0.791603314780958  0.8165295543035113  1.0000
  S   S7        1.0  0.3215800381797977  0.5842125681844369  0.297478956482617  1.0000
  S   S8        1.0  0.678419961889295  0.41578743251288935  0.7025210434250374  1.0000
