data_image0
_chemical_formula_structural       H44C58N4O4S2
_chemical_formula_sum              "H44 C58 N4 O4 S2"
_cell_length_a       9.256831989702018
_cell_length_b       10.85007468585532
_cell_length_c       12.874970755647725
_cell_angle_alpha    67.6698440832154
_cell_angle_beta     87.6209469724267
_cell_angle_gamma    64.81671205929479

_space_group_name_H-M_alt    "P 1"
_space_group_IT_number       1

loop_
  _space_group_symop_operation_xyz
  'x, y, z'

loop_
  _atom_site_type_symbol
  _atom_site_label
  _atom_site_symmetry_multiplicity
  _atom_site_fract_x
  _atom_site_fract_y
  _atom_site_fract_z
  _atom_site_occupancy
  H   H1        1.0  0.9025976640071557  0.37124692464996745  0.5478864048801012  1.0000
  H   H2        1.0  0.09740233589685877  0.6287530756083484  0.4521135949285505  1.0000
  H   H3        1.0  0.062378382006703544  0.3463495600101366  0.6335730460285818  1.0000
  H   H4        1.0  0.937621617897311  0.6536504402481791  0.3664269537800702  1.0000
  H   H5        1.0  0.4863861715230465  0.14961041271796374  0.3895372043894634  1.0000
  H   H6        1.0  0.5136138283809679  0.850389587540352  0.6104627954191884  1.0000
  H   H7        1.0  0.4479998742737771  0.2399482922065035  0.2016863592166164  1.0000
  H   H8        1.0  0.5520001261642588  0.760051706940233  0.7983136409296988  1.0000
  H   H9        1.0  0.42150897041428936  0.2601194118800185  0.00532057671459121  1.0000
  H   H10       1.0  0.5784910300237466  0.739880587266718  0.994679423431724  1.0000
  H   H11       1.0  0.1598655685809572  0.3091647567182053  0.9133032387885337  1.0000
  H   H12       1.0  0.8401344313230573  0.6908352435401104  0.08669676102011797  1.0000
  H   H13       1.0  0.928185614792204  0.3313992912301871  0.021599879711804493  1.0000
  H   H14       1.0  0.07181438511181051  0.6686007090281288  0.9784001200968474  1.0000
  H   H15       1.0  0.9568412025636464  0.30364025336233874  0.22065589657529155  1.0000
  H   H16       1.0  0.04315879734036801  0.6963597468959771  0.7793441032333602  1.0000
  H   H17       1.0  0.10448539795446943  0.5260329247271186  0.6778217642991045  1.0000
  H   H18       1.0  0.8955146019495449  0.4739670755311971  0.32217823550954744  1.0000
  H   H19       1.0  0.3800767154532423  0.4808519350856073  0.5410244446159005  1.0000
  H   H20       1.0  0.6199232849847938  0.5191480640611292  0.4589755555304148  1.0000
  H   H21       1.0  0.33777099628600715  0.13422530450815423  0.8049641198270835  1.0000
  H   H22       1.0  0.6622290041520287  0.8657746946385823  0.19503588031923183  1.0000
  H   H23       1.0  0.6319190624269952  0.9990549704161509  0.871194250804272  1.0000
  H   H24       1.0  0.3680809380095382  0.0009450287272778712  0.12880575011984133  1.0000
  H   H25       1.0  0.6201148719779258  0.5582671581147466  0.7172146079752378  1.0000
  H   H26       1.0  0.37988512792608853  0.4417328421435692  0.282785391833414  1.0000
  H   H27       1.0  0.9093222802185185  0.4260011496813456  0.790079479870498  1.0000
  H   H28       1.0  0.09067771968399368  0.5739988505736623  0.20992052071595202  1.0000
  H   H29       1.0  0.04844245876763673  0.14981595326458438  0.8789522706256699  1.0000
  H   H30       1.0  0.9515575411363778  0.8501840469937313  0.12104772918298193  1.0000
  H   H31       1.0  0.8943082311819666  0.004398232416385025  0.8960249550255421  1.0000
  H   H32       1.0  0.10569176872204786  0.9956017678419309  0.1039750447831096  1.0000
  H   H33       1.0  0.19684210099662838  0.8722439930493978  0.40522247841082504  1.0000
  H   H34       1.0  0.803157898907386  0.127756007208918  0.5947775213978267  1.0000
  H   H35       1.0  0.14059702816151692  0.03262059247781462  0.5127380260606909  1.0000
  H   H36       1.0  0.8594029717424975  0.967379407780501  0.487261973747961  1.0000
  H   H37       1.0  0.3971181557148391  0.5053609044156873  0.90146166281115  1.0000
  H   H38       1.0  0.602881844187673  0.49463909583932075  0.09853833777529997  1.0000
  H   H39       1.0  0.3414446603082386  0.6642667962954399  0.007926013949052528  1.0000
  H   H40       1.0  0.6585553401297972  0.3357332028512966  0.9920739861972627  1.0000
  H   H41       1.0  0.21761223938677446  0.9378494879225004  0.9073615932810911  1.0000
  H   H42       1.0  0.7823877605172399  0.06215051233581532  0.09263840652756071  1.0000
  H   H43       1.0  0.14253407169898852  0.05713425891279771  0.6970213655249239  1.0000
  H   H44       1.0  0.8574659287390474  0.9428657402339389  0.3029786346213914  1.0000
  C   C1        1.0  0.12605784358997776  0.29491807822261235  0.4964829385285034  1.0000
  C   C2        1.0  0.8739421568480581  0.7050819209241241  0.5035170616178121  1.0000
  C   C3        1.0  0.22037679021334008  0.25736360266657804  0.34228331430107023  1.0000
  C   C4        1.0  0.7796232096906744  0.7426363975917377  0.6577166855075817  1.0000
  C   C5        1.0  0.36504264187040647  0.1988296236562196  0.4086911677508251  1.0000
  C   C6        1.0  0.634957358033608  0.8011703766020962  0.5913088320578267  1.0000
  C   C7        1.0  0.20417576546194324  0.268954407176162  0.22572507123272204  1.0000
  C   C8        1.0  0.7958242349760927  0.7310455919705746  0.7742749289135932  1.0000
  C   C9        1.0  0.33454802978799125  0.2572418736980272  0.16347979839873025  1.0000
  C   C10       1.0  0.6654519701160231  0.7427581265602885  0.8365202014099216  1.0000
  C   C11       1.0  0.31918611250604767  0.27029351180158256  0.05227254037060397  1.0000
  C   C12       1.0  0.6808138873979667  0.7297064884567331  0.9477274594380478  1.0000
  C   C13       1.0  0.17299049439947342  0.2964900295814274  0.0007874683595274132  1.0000
  C   C14       1.0  0.8270095055030386  0.7035099706735806  0.9992125322269225  1.0000
  C   C15       1.0  0.04301831548560607  0.30891953873527034  0.06155608629384207  1.0000
  C   C16       1.0  0.9569816844184085  0.6910804615230455  0.9384439135148098  1.0000
  C   C17       1.0  0.05818040347877988  0.29478532955796427  0.17324344637927488  1.0000
  C   C18       1.0  0.9418195964252346  0.7052146707003515  0.8267565534293769  1.0000
  C   C19       1.0  0.4159986039830265  0.4349927542577769  0.7296279830761084  1.0000
  C   C20       1.0  0.5840013964550093  0.5650072448889597  0.27037201707020686  1.0000
  C   C21       1.0  0.32978660948022925  0.35265546834380224  0.7436107066580084  1.0000
  C   C22       1.0  0.6702133904237851  0.6473445319145135  0.25638929315064335  1.0000
  C   C23       1.0  0.4093488065527876  0.1947296105758601  0.7957874610405588  1.0000
  C   C24       1.0  0.590651193883746  0.8052703885675686  0.20421253988355484  1.0000
  C   C25       1.0  0.5724072074359772  0.12025456778228619  0.8325992429744778  1.0000
  C   C26       1.0  0.42759279300055636  0.8797454313611427  0.16740075794963558  1.0000
  C   C27       1.0  0.6653551184646896  0.19932468255926927  0.821110855374222  1.0000
  C   C28       1.0  0.3346448814393247  0.8006753176990467  0.17888914443442974  1.0000
  C   C29       1.0  0.5856749594720182  0.35859396803603244  0.769389973858954  1.0000
  C   C30       1.0  0.41432504043199614  0.6414060322222834  0.23061002594969776  1.0000
  C   C31       1.0  0.67831282574418  0.4374698306396702  0.7581126415260769  1.0000
  C   C32       1.0  0.32168717415983444  0.5625301696186457  0.2418873582825748  1.0000
  C   C33       1.0  0.8410213045896019  0.3630589115289007  0.7980045785574268  1.0000
  C   C34       1.0  0.15897869531441247  0.6369410887294151  0.20199542125122497  1.0000
  C   C35       1.0  0.9196240755714902  0.20629425604694837  0.8484415462913026  1.0000
  C   C36       1.0  0.08037592433252432  0.7937057442113675  0.15155845351734923  1.0000
  C   C37       1.0  0.8338473376578845  0.12570494627430842  0.8589413845159672  1.0000
  C   C38       1.0  0.1661526622461298  0.8742950539840074  0.14105861529268446  1.0000
  C   C39       1.0  0.33657011674270787  0.5995216238140807  0.6734289645398693  1.0000
  C   C40       1.0  0.6634298831613066  0.4004783764442351  0.3265710352687824  1.0000
  C   C41       1.0  0.29583908809608844  0.6682853525362361  0.5562450611402203  1.0000
  C   C42       1.0  0.704160911807926  0.3317146477220796  0.4437549386684315  1.0000
  C   C43       1.0  0.2260543320649094  0.8245113531369304  0.4974047555842201  1.0000
  C   C44       1.0  0.773945667839105  0.17548864712138554  0.5025952442244317  1.0000
  C   C45       1.0  0.19576985793751936  0.9120872362079971  0.5575141111884879  1.0000
  C   C46       1.0  0.8042301425005166  0.08791276293873931  0.4424858889578274  1.0000
  C   C47       1.0  0.23443222787526524  0.8481893541747181  0.677605500227611  1.0000
  C   C48       1.0  0.765567772028749  0.15181064608359773  0.3223944995810407  1.0000
  C   C49       1.0  0.30744663670436545  0.6892668854475583  0.7363624735193608  1.0000
  C   C50       1.0  0.6925533637336704  0.3107331136991782  0.26363752662695455  1.0000
  C   C51       1.0  0.34545967117541615  0.6256078880723039  0.8563877296764014  1.0000
  C   C52       1.0  0.6545403287285982  0.3743921121860119  0.1436122701322504  1.0000
  C   C53       1.0  0.3137862037597472  0.7144441492861298  0.9157010246493447  1.0000
  C   C54       1.0  0.6862137961427649  0.28555585096887826  0.08429897593710513  1.0000
  C   C55       1.0  0.2421319016508057  0.8706313091657951  0.8580609100807708  1.0000
  C   C56       1.0  0.7578680982532087  0.12936869109252064  0.1419390897278809  1.0000
  C   C57       1.0  0.20214283325877977  0.936376846515579  0.7415388786482617  1.0000
  C   C58       1.0  0.7978571671777538  0.06362315262784986  0.2584611222758517  1.0000
  N   N1        1.0  0.08435037293712555  0.31243081096196157  0.392786912431089  1.0000
  N   N2        1.0  0.9156496275009104  0.6875691881847751  0.6072130877152263  1.0000
  N   N3        1.0  0.024197434086181087  0.32660183278634786  0.5708591904807564  1.0000
  N   N4        1.0  0.9758025658178331  0.673398167471968  0.4291408093278953  1.0000
  O   O1        1.0  0.16792617170671398  0.41379943612735326  0.7099111787032962  1.0000
  O   O2        1.0  0.8320738281973005  0.5862005641309624  0.29008882110535555  1.0000
  O   O3        1.0  0.32027037666212305  0.5869393470998857  0.49147196390558356  1.0000
  O   O4        1.0  0.6797296232418913  0.41306065315843005  0.5085280359030683  1.0000
  S   S1        1.0  0.3358820777780672  0.21117609091645154  0.5377573905082231  1.0000
  S   S2        1.0  0.664117922125947  0.7888239093418643  0.4622426093004287  1.0000
