data_image0
_chemical_formula_structural       H20C28N8O8Cl4
_chemical_formula_sum              "H20 C28 N8 O8 Cl4"
_cell_length_a       3.826195097257924
_cell_length_b       19.737630673710854
_cell_length_c       9.375167589256277
_cell_angle_alpha    90.0
_cell_angle_beta     95.09084570106499
_cell_angle_gamma    90.0

_space_group_name_H-M_alt    "P 1"
_space_group_IT_number       1

loop_
  _space_group_symop_operation_xyz
  'x, y, z'

loop_
  _atom_site_type_symbol
  _atom_site_label
  _atom_site_symmetry_multiplicity
  _atom_site_fract_x
  _atom_site_fract_y
  _atom_site_fract_z
  _atom_site_occupancy
  H   H1        1.0  0.6504265910421055  0.32994466193320576  0.5453022838964787  1.0000
  H   H2        1.0  0.3495734088414318  0.8299446620925245  0.9546977156170121  1.0000
  H   H3        1.0  0.34957340862048875  0.6700553378787851  0.45469771630369243  1.0000
  H   H4        1.0  0.6504265908211624  0.1700553377194665  0.045302284583159075  1.0000
  H   H5        1.0  0.2845375508273977  0.32146872818180444  0.32947345165096037  1.0000
  H   H6        1.0  0.7154624483490655  0.8214687283411231  0.17052654816510138  1.0000
  H   H7        1.0  0.7154624488351966  0.6785312716301866  0.6705265485492108  1.0000
  H   H8        1.0  0.2845375513135288  0.1785312714708678  0.8294734520350698  1.0000
  H   H9        1.0  0.26579518189222223  0.1105978820906566  0.33698691970721156  1.0000
  H   H10       1.0  0.7342048175494289  0.6105978822499752  0.16301308117963992  1.0000
  H   H11       1.0  0.734204817770372  0.8894021177213344  0.6630130804929597  1.0000
  H   H12       1.0  0.26579518211316533  0.3894021180686621  0.8369869190205314  1.0000
  H   H13       1.0  0.6546054338221388  0.11149196002187986  0.5722586209083669  1.0000
  H   H14       1.0  0.3453945663265866  0.6114919601811986  0.9277413796759137  1.0000
  H   H15       1.0  0.34539456584045547  0.8885080397901111  0.4277413792918043  1.0000
  H   H16       1.0  0.6546054359464857  0.3885080396307924  0.07225862051099323  1.0000
  H   H17       1.0  0.8484198671469266  0.22758510959387937  0.6698412002218664  1.0000
  H   H18       1.0  0.15158013273661075  0.7275851097531981  0.8301587992916245  1.0000
  H   H19       1.0  0.15158013512614577  0.7724148902181116  0.3301587999650406  1.0000
  H   H20       1.0  0.8484198666607955  0.2724148900587929  0.16984119983775692  1.0000
  C   C1        1.0  0.8423017464825018  0.4429687065553045  0.5688802459153143  1.0000
  C   C2        1.0  0.1576982534010355  0.9429687067146232  0.9311197535981767  1.0000
  C   C3        1.0  0.1576982529149044  0.5570312937633329  0.43111975321406715  1.0000
  C   C4        1.0  0.8423017488720368  0.05703129360401419  0.06888024658873038  1.0000
  C   C5        1.0  0.9234564785900449  0.501704995077722  0.6478631371128085  1.0000
  C   C6        1.0  0.07654352155868045  0.0017049949184033957  0.8521368634714721  1.0000
  C   C7        1.0  0.07654352107254936  0.49829500524091525  0.35213686308736264  1.0000
  C   C8        1.0  0.9234564781039138  0.9982950048935876  0.14786313672869908  1.0000
  C   C9        1.0  0.08041100247932427  0.5593066347473861  0.5893385274991805  1.0000
  C   C10       1.0  0.9195889974042131  0.05930663509471382  0.9106614720143106  1.0000
  C   C11       1.0  0.91958899718327  0.4406933650646049  0.41066147270099085  1.0000
  C   C12       1.0  0.08041100460367123  0.9406933652239235  0.08933852710180672  1.0000
  C   C13       1.0  0.36543024524743845  0.27337340986862996  0.3792309841688797  1.0000
  C   C14       1.0  0.6345697568046909  0.7733734100279487  0.12076901670470767  1.0000
  C   C15       1.0  0.6345697570256338  0.726626589943361  0.6207690160180275  1.0000
  C   C16       1.0  0.36543024285790343  0.2266265902906887  0.8792309834954634  1.0000
  C   C17       1.0  0.35808131511277075  0.1577551536693433  0.3873687367769331  1.0000
  C   C18       1.0  0.6419186840636923  0.6577551533220155  0.11263126303912863  1.0000
  C   C19       1.0  0.6419186842846354  0.8422448466492941  0.6126312623524484  1.0000
  C   C20       1.0  0.3580813155989019  0.3422448464899754  0.8873687371610426  1.0000
  C   C21       1.0  0.572437565932585  0.15787139710493744  0.5160065897026517  1.0000
  C   C22       1.0  0.4275624342161403  0.6578713972642561  0.983993410881629  1.0000
  C   C23       1.0  0.4275624363404873  0.8421286027070535  0.4839934104842553  1.0000
  C   C24       1.0  0.572437565446454  0.3421286025477348  0.01600658931854221  1.0000
  C   C25       1.0  0.6783437303090218  0.22037377443653552  0.5717351283441936  1.0000
  C   C26       1.0  0.3216562695745156  0.7203737745958542  0.9282648711692973  1.0000
  C   C27       1.0  0.3216562693535725  0.7796262258821018  0.4282648718559776  1.0000
  C   C28       1.0  0.6783437298228906  0.2796262257227832  0.07173512796008416  1.0000
  N   N1        1.0  0.5737988785341553  0.277332197085379  0.5019001515201021  1.0000
  N   N2        1.0  0.426201121349382  0.7773321967380512  0.9980998479933887  1.0000
  N   N3        1.0  0.426201123738917  0.7226678032332584  0.49809984866680485  1.0000
  N   N4        1.0  0.5737988783132122  0.2226678030739397  0.0019001522067824603  1.0000
  N   N5        1.0  0.2525298074703211  0.2154557697578235  0.31977935652347045  1.0000
  N   N6        1.0  0.7474701917061422  0.7154557694104957  0.18022064329259133  1.0000
  N   N7        1.0  0.7474701919270851  0.7845442305608139  0.680220642605911  1.0000
  N   N8        1.0  0.2525298079564522  0.2845442304014952  0.8197793569075799  1.0000
  O   O1        1.0  0.7071083001299889  0.3904257475170999  0.6211616203502585  1.0000
  O   O2        1.0  0.2928916997535485  0.8904257471697721  0.8788383791632325  1.0000
  O   O3        1.0  0.29289170214308347  0.6095742528015374  0.3788383798366485  1.0000
  O   O4        1.0  0.7071082996438578  0.10957425264221878  0.12116161996614906  1.0000
  O   O5        1.0  0.15835503370198156  0.6124743541838296  0.6579540955211303  1.0000
  O   O6        1.0  0.8416449661815557  0.11247435402451089  0.8420459039923606  1.0000
  O   O7        1.0  0.8416449659606127  0.3875256461348078  0.3420459046790409  1.0000
  O   O8        1.0  0.1583550334810385  0.8875256462941264  0.15795409620781062  1.0000
  Cl  Cl1       1.0  0.8414629376540271  0.5046716500409234  0.8265086078812907  1.0000
  Cl  Cl2       1.0  0.1585370624946981  0.004671649881604771  0.67349139270299  1.0000
  Cl  Cl3       1.0  0.15853706200856701  0.4953283502777139  0.17349139231888053  1.0000
  Cl  Cl4       1.0  0.8414629371678961  0.9953283499303861  0.32650860749718125  1.0000
