data_image0
_chemical_formula_structural       H62B2C60N2S2
_chemical_formula_sum              "H62 B2 C60 N2 S2"
_cell_length_a       10.02702126339059
_cell_length_b       10.886226117331454
_cell_length_c       12.61092571349014
_cell_angle_alpha    110.7534773260106
_cell_angle_beta     108.7067117570252
_cell_angle_gamma    95.92506563237609

_space_group_name_H-M_alt    "P 1"
_space_group_IT_number       1

loop_
  _space_group_symop_operation_xyz
  'x, y, z'

loop_
  _atom_site_type_symbol
  _atom_site_label
  _atom_site_symmetry_multiplicity
  _atom_site_fract_x
  _atom_site_fract_y
  _atom_site_fract_z
  _atom_site_occupancy
  H   H1        1.0  0.23707207876785463  0.015935683984735844  0.6823536485883335  1.0000
  H   H2        1.0  0.7629279216548333  0.9840643155057044  0.31764635147555054  1.0000
  H   H3        1.0  0.06857588777993091  0.9161127642735714  0.6449448677639257  1.0000
  H   H4        1.0  0.931424112642757  0.08388723521686868  0.35505513229995816  1.0000
  H   H5        1.0  0.33800968411885557  0.12041434173192364  0.9027306719083504  1.0000
  H   H6        1.0  0.6619903158807744  0.8795856573401554  0.09726932723709263  1.0000
  H   H7        1.0  0.399185718275997  0.10241845192266005  0.10311666990402152  1.0000
  H   H8        1.0  0.60081428224984  0.8975815484905413  0.8968833301581812  1.0000
  H   H9        1.0  0.32367613955363245  0.8829977936722533  0.11023024980797547  1.0000
  H   H10       1.0  0.6763238609722048  0.11700220674094822  0.8897697502542274  1.0000
  H   H11       1.0  0.1969002521304291  0.6758868714114266  0.9154317720056993  1.0000
  H   H12       1.0  0.8030997482922587  0.3241131280790135  0.08456822805818483  1.0000
  H   H13       1.0  0.6459370876426237  0.6287208218737196  0.707554935931875  1.0000
  H   H14       1.0  0.3540629113621439  0.37127917720112924  0.29244506321881375  1.0000
  H   H15       1.0  0.7010957685161567  0.017748352745460487  0.6944181526029911  1.0000
  H   H16       1.0  0.29890423101481806  0.9822516476705107  0.3055818474644574  1.0000
  H   H17       1.0  0.2818668492120755  0.5021626030292329  0.5162747056988854  1.0000
  H   H18       1.0  0.7181331512106123  0.4978373964612071  0.4837252943649985  1.0000
  H   H19       1.0  0.3102166753501939  0.5446772531783097  0.67211271593577  1.0000
  H   H20       1.0  0.6897833241807809  0.4553227472376616  0.3278872841316785  1.0000
  H   H21       1.0  0.4382080295230961  0.48046535696411113  0.613580643789491  1.0000
  H   H22       1.0  0.5617919708995915  0.5195346425263289  0.3864193562743931  1.0000
  H   H23       1.0  0.8906049239286297  0.7567486415175906  0.7380996966013188  1.0000
  H   H24       1.0  0.10939507560234496  0.2432513588983808  0.26190030346612975  1.0000
  H   H25       1.0  0.897418778957279  0.8942901055102872  0.868632430277737  1.0000
  H   H26       1.0  0.10258122057369587  0.10570989490568408  0.13136756978971173  1.0000
  H   H27       1.0  0.9113254405189859  0.9234108430753417  0.7428599752663081  1.0000
  H   H28       1.0  0.08867455890883948  0.07658915641786815  0.25714002480282155  1.0000
  H   H29       1.0  0.5101874246974293  0.07698334736810812  0.588552513388363  1.0000
  H   H30       1.0  0.4898125748335456  0.9230166530478631  0.4114474866790856  1.0000
  H   H31       1.0  0.42223681590547346  0.10495720392535637  0.6918889513421541  1.0000
  H   H32       1.0  0.5777631836255015  0.895042796490615  0.30811104872529455  1.0000
  H   H33       1.0  0.3250998066671032  0.9935196920459347  0.5354869841035258  1.0000
  H   H34       1.0  0.6749001937555846  0.006480307444505238  0.46451301596035816  1.0000
  H   H35       1.0  0.18802371448851693  0.6679585410316499  0.1526366615614849  1.0000
  H   H36       1.0  0.8119762859341708  0.33204145845879  0.847363338502399  1.0000
  H   H37       1.0  0.8157344822755397  0.7773253939798935  0.21802697803773546  1.0000
  H   H38       1.0  0.18426551725543522  0.22267460643607784  0.7819730220297132  1.0000
  H   H39       1.0  0.3482027903647891  0.6152962897881067  0.2747930760080119  1.0000
  H   H40       1.0  0.6517972101610481  0.3847037106250947  0.725206924054191  1.0000
  H   H41       1.0  0.32908269682131497  0.5932398279193514  0.4020675156796345  1.0000
  H   H42       1.0  0.6709173021834527  0.4067601711554975  0.5979324834710543  1.0000
  H   H43       1.0  0.43487932461599726  0.7458404774795805  0.42545298086537026  1.0000
  H   H44       1.0  0.5651206758066907  0.25415952201085956  0.5745470191985138  1.0000
  H   H45       1.0  0.9501471133993376  0.6315027977861087  0.9763457633855066  1.0000
  H   H46       1.0  0.049852887023350397  0.3684972017043313  0.023654236678377433  1.0000
  H   H47       1.0  0.9759609628647972  0.8094789878973103  0.03340966989450636  1.0000
  H   H48       1.0  0.02403903766104017  0.19052101251589124  0.9665903301676966  1.0000
  H   H49       1.0  0.8121863279789926  0.7070067677666189  0.012178215454831984  1.0000
  H   H50       1.0  0.18781367254684456  0.2929932326465825  0.9878217846073708  1.0000
  H   H51       1.0  0.7761768378038599  0.7770921132094665  0.37873805469166516  1.0000
  H   H52       1.0  0.22382316261882784  0.22290788628097355  0.6212619453722188  1.0000
  H   H53       1.0  0.9087623811298676  0.9179685212230881  0.5022797691744714  1.0000
  H   H54       1.0  0.09123761929282036  0.08203147826735192  0.49772023088941264  1.0000
  H   H55       1.0  0.8977107759100621  0.7554657393390786  0.5034643369549809  1.0000
  H   H56       1.0  0.10228922461577515  0.2445342610741228  0.4965356631072219  1.0000
  H   H57       1.0  0.5215871760067856  0.5742592072683161  0.21646792676482576  1.0000
  H   H58       1.0  0.4784128235241891  0.42574079314765517  0.7835320733026228  1.0000
  H   H59       1.0  0.48680492873640846  0.733658211598848  0.11522886340276611  1.0000
  H   H60       1.0  0.5131950706914171  0.26634178789436197  0.8847711366663638  1.0000
  H   H61       1.0  0.46767243372616246  0.6605344680661658  0.8990687106746497  1.0000
  H   H62       1.0  0.5323275667996747  0.33946553234703564  0.10093128938755316  1.0000
  B   B1        1.0  0.2093830833210746  0.7881018728997105  0.5685762905660522  1.0000
  B   B2        1.0  0.7906169172047627  0.2118981275134911  0.4314237094961506  1.0000
  C   C1        1.0  0.18440139383954376  0.9172053798814498  0.6717925623766408  1.0000
  C   C2        1.0  0.8155986066862934  0.0827946205317517  0.328207437685562  1.0000
  C   C3        1.0  0.23170003418421223  0.9099461199512486  0.7941129715083549  1.0000
  C   C4        1.0  0.7682999653467626  0.09005388046472267  0.20588702855909377  1.0000
  C   C5        1.0  0.3065911545479302  0.022829128760967522  0.9051476560631082  1.0000
  C   C6        1.0  0.693408845977907  0.9771708716522339  0.0948523439990946  1.0000
  C   C7        1.0  0.3403488472211453  0.013027008927196222  0.017668696144803958  1.0000
  C   C8        1.0  0.6596511533046918  0.986972991486005  0.9823313039173989  1.0000
  C   C9        1.0  0.29858936560030297  0.8887765802285076  0.021902208099354132  1.0000
  C   C10       1.0  0.7014106338275224  0.1112234192647023  0.9780977919697755  1.0000
  C   C11       1.0  0.2262232122624617  0.7741319737204672  0.9132354274370506  1.0000
  C   C12       1.0  0.7737767871653638  0.22586802577274276  0.08676457263207925  1.0000
  C   C13       1.0  0.19387990873897176  0.7839090501342161  0.7999324216319709  1.0000
  C   C14       1.0  0.806120091683716  0.21609094935622403  0.2000675784319131  1.0000
  C   C15       1.0  0.11613236525090863  0.6677717015939448  0.6854691365865463  1.0000
  C   C16       1.0  0.8838676352749287  0.33222829881925653  0.31453086347565645  1.0000
  C   C17       1.0  0.0315852703589049  0.5454018285937191  0.48295652219951357  1.0000
  C   C18       1.0  0.9684147301669324  0.4545981718194824  0.5170434778626892  1.0000
  C   C19       1.0  0.3837627296740239  0.7922619616360469  0.6190809431773109  1.0000
  C   C20       1.0  0.6162372697538016  0.20773803785716302  0.3809190568918188  1.0000
  C   C21       1.0  0.44879932756362734  0.6892415641272096  0.6423115683471773  1.0000
  C   C22       1.0  0.5512006714411403  0.3107584349476394  0.3576884308035116  1.0000
  C   C23       1.0  0.6005220520416605  0.7099709779491625  0.6900033077443536  1.0000
  C   C24       1.0  0.39947794838102724  0.2900290215412775  0.30999669231953036  1.0000
  C   C25       1.0  0.6946729649563558  0.8283548929392212  0.7125596967350682  1.0000
  C   C26       1.0  0.3053270355694815  0.17164510747398018  0.28744030332713455  1.0000
  C   C27       1.0  0.6312771936757424  0.9260866764301537  0.6831962220328969  1.0000
  C   C28       1.0  0.3687228068500947  0.07391332398304765  0.316803778029306  1.0000
  C   C29       1.0  0.4806956608684679  0.9113076771601016  0.6400723711923936  1.0000
  C   C30       1.0  0.519304338662507  0.08869232325586975  0.359927628875055  1.0000
  C   C31       1.0  0.3649277521005772  0.5483303147895362  0.6100465769038591  1.0000
  C   C32       1.0  0.6350722483221106  0.4516696847009039  0.3899534231600249  1.0000
  C   C33       1.0  0.8566111104816285  0.8515324725533403  0.7675885150058769  1.0000
  C   C34       1.0  0.14338888904934632  0.14846752786263104  0.2324114850615718  1.0000
  C   C35       1.0  0.4307691250405161  0.026672192605943536  0.6119191539935355  1.0000
  C   C36       1.0  0.569230875485321  0.9733278078072578  0.3880808460686673  1.0000
  C   C37       1.0  0.13256287344358114  0.7653170496015853  0.42359538992765555  1.0000
  C   C38       1.0  0.8674371259842443  0.2346829498916246  0.5764046101414741  1.0000
  C   C39       1.0  0.19925743621984  0.7183294511760302  0.336772938631548  1.0000
  C   C40       1.0  0.8007425643059971  0.2816705492371713  0.6632270614306548  1.0000
  C   C41       1.0  0.1330645426461992  0.7050682148483989  0.21562240193349774  1.0000
  C   C42       1.0  0.8669354577764887  0.2949317846420411  0.7843775981303863  1.0000
  C   C43       1.0  0.9974673153221104  0.731149258964166  0.17112113678120475  1.0000
  C   C44       1.0  0.0025326842088643484  0.26885074145180526  0.8288788632862438  1.0000
  C   C45       1.0  0.9265392859407432  0.7662398663960859  0.2522022187174745  1.0000
  C   C46       1.0  0.07346071458509403  0.23376013401711562  0.7477977813447284  1.0000
  C   C47       1.0  0.9894358269507408  0.7829252957833972  0.3747939159665555  1.0000
  C   C48       1.0  0.010564172477084549  0.21707470370981263  0.6252060841025743  1.0000
  C   C49       1.0  0.3353710947887191  0.6667465408461413  0.3617592352744712  1.0000
  C   C50       1.0  0.6646289057371181  0.33325345956706015  0.6382407647877316  1.0000
  C   C51       1.0  0.9299315203420119  0.7185082029667652  0.041512806814526494  1.0000
  C   C52       1.0  0.07006847918896286  0.28149179744920616  0.9584871932529221  1.0000
  C   C53       1.0  0.8894462447001932  0.8098564208154969  0.44415335881555434  1.0000
  C   C54       1.0  0.11055375483078154  0.19014357960047434  0.5558466412518942  1.0000
  C   C55       1.0  0.5116936154774744  0.5414805145344304  0.12148639907267127  1.0000
  C   C56       1.0  0.4883063840535004  0.458519485881541  0.8785136009947774  1.0000
  C   C57       1.0  0.4931831321395912  0.6313217147443227  0.06474267382761907  1.0000
  C   C58       1.0  0.5068168682830967  0.36867828474611725  0.935257326236265  1.0000
  C   C59       1.0  0.481863218106931  0.5902572078062123  0.9432520307043784  1.0000
  C   C60       1.0  0.5181367823157569  0.40974279168422795  0.05674796935950574  1.0000
  N   N1        1.0  0.11639373960554057  0.6643066609108499  0.5778843706189574  1.0000
  N   N2        1.0  0.8836062608171473  0.3356933385795901  0.42211562944492653  1.0000
  S   S1        1.0  0.985594739111451  0.4798708974121281  0.3267767814584429  1.0000
  S   S2        1.0  0.014405261414386144  0.5201291030010733  0.67322321860376  1.0000
