data_image0
_chemical_formula_structural       H20C28N4O10Cl8
_chemical_formula_sum              "H20 C28 N4 O10 Cl8"
_cell_length_a       7.367340980621425
_cell_length_b       9.71132850800206
_cell_length_c       13.64156696177655
_cell_angle_alpha    69.30571314043515
_cell_angle_beta     87.40838771073832
_cell_angle_gamma    68.1599176001096

_space_group_name_H-M_alt    "P 1"
_space_group_IT_number       1

loop_
  _space_group_symop_operation_xyz
  'x, y, z'

loop_
  _atom_site_type_symbol
  _atom_site_label
  _atom_site_symmetry_multiplicity
  _atom_site_fract_x
  _atom_site_fract_y
  _atom_site_fract_z
  _atom_site_occupancy
  H   H1        1.0  0.455800553944458  0.8967839343536622  0.3499659158819817  1.0000
  H   H2        1.0  0.5441994460238607  0.1032160657662702  0.6500340841447266  1.0000
  H   H3        1.0  0.37365236012978553  0.45048062365798597  0.12041793846016303  1.0000
  H   H4        1.0  0.626347639838533  0.5495193764619467  0.8795820615665453  1.0000
  H   H5        1.0  0.24747016166513494  0.39893570945365897  0.2970419069860567  1.0000
  H   H6        1.0  0.7525298383031838  0.6010642906662735  0.7029580930406517  1.0000
  H   H7        1.0  0.17320213447653598  0.9626041689739302  0.07883470905205302  1.0000
  H   H8        1.0  0.8267978654917827  0.03739583114600239  0.9211652909746554  1.0000
  H   H9        1.0  0.8200233282151191  0.1538221801468074  0.35406388499138924  1.0000
  H   H10       1.0  0.1799766717531996  0.8461778199731251  0.645936115035319  1.0000
  H   H11       1.0  0.9505896486904023  0.865768769118089  0.38377286444082237  1.0000
  H   H12       1.0  0.04941035127791639  0.13423123100184367  0.616227135585886  1.0000
  H   H13       1.0  0.4556434626241688  0.6279070185904435  0.5889114610364994  1.0000
  H   H14       1.0  0.54435653734415  0.3720929815294889  0.41108853899020903  1.0000
  H   H15       1.0  0.21502453640260638  0.7083561189744639  0.5204411243770272  1.0000
  H   H16       1.0  0.7849754635657121  0.2916438811454687  0.4795588756496812  1.0000
  H   H17       1.0  0.7362265557199107  0.5518980893703573  0.48974766312802737  1.0000
  H   H18       1.0  0.26377344479498444  0.44810190964022983  0.5102523368986803  1.0000
  H   H19       1.0  0.6830608006257011  0.5808492810042465  0.3551881012628387  1.0000
  H   H20       1.0  0.3169391993426175  0.419150719115686  0.6448118987638697  1.0000
  C   C1        1.0  0.34830743743924925  0.1453398987002029  0.3317459498065984  1.0000
  C   C2        1.0  0.6516925625290694  0.8546601014197298  0.6682540502201099  1.0000
  C   C3        1.0  0.44195827555255673  0.016834278844400006  0.29955408617654106  1.0000
  C   C4        1.0  0.5580417242714275  0.9831657217076469  0.7004459130626608  1.0000
  C   C5        1.0  0.5098898432036014  0.04732803924231327  0.20031646623442811  1.0000
  C   C6        1.0  0.4901101567647171  0.9526719608776193  0.7996835337922801  1.0000
  C   C7        1.0  0.4845188986479624  0.2042992605620345  0.1356638253116825  1.0000
  C   C8        1.0  0.5154811011760217  0.7957007399900126  0.8643361739275193  1.0000
  C   C9        1.0  0.3920267067481555  0.33001467747932317  0.17103663180399784  1.0000
  C   C10       1.0  0.6079732932201634  0.6699853226406093  0.8289633682227106  1.0000
  C   C11       1.0  0.32239749896698705  0.3015197284847879  0.2695639768787249  1.0000
  C   C12       1.0  0.6776025010013317  0.6984802716351445  0.7304360231479834  1.0000
  C   C13       1.0  0.07115608773192952  0.9000584915893791  0.23323842465800185  1.0000
  C   C14       1.0  0.9288439122363891  0.09994150853055347  0.7667615753687066  1.0000
  C   C15       1.0  0.09561925481406712  0.005837933094237799  0.13834381889918868  1.0000
  C   C16       1.0  0.9043807451542514  0.9941620670256949  0.8616561811275196  1.0000
  C   C17       1.0  0.016054036339796813  0.16809600406035038  0.12047267693093629  1.0000
  C   C18       1.0  0.9839459636285219  0.8319039960595821  0.879527323095772  1.0000
  C   C19       1.0  0.9185503275919354  0.22142209180454883  0.19928008006296116  1.0000
  C   C20       1.0  0.08144967292295976  0.7785779072060383  0.8007199199637466  1.0000
  C   C21       1.0  0.8981620927207584  0.11203844024092138  0.2941261777961162  1.0000
  C   C22       1.0  0.10183790724756007  0.8879615598790114  0.7058738222305921  1.0000
  C   C23       1.0  0.971910543899223  0.9504507583356738  0.31135420268482333  1.0000
  C   C24       1.0  0.02808945606909576  0.049549241784258576  0.688645797341885  1.0000
  C   C25       1.0  0.3651785239314284  0.6200938994195724  0.5300569271996215  1.0000
  C   C26       1.0  0.6348214760368902  0.37990610070036007  0.46994307282708697  1.0000
  C   C27       1.0  0.6359573628980761  0.5462911462736603  0.4347158405511937  1.0000
  C   C28       1.0  0.36404263707024254  0.45370885384627235  0.5652841594755147  1.0000
  N   N1        1.0  0.26843890674492515  0.11526089064165573  0.4336605732575557  1.0000
  N   N2        1.0  0.7315610932233936  0.8847391094782768  0.5663394267691526  1.0000
  N   N3        1.0  0.147906070471056  0.7305065457074215  0.24963770921728115  1.0000
  N   N4        1.0  0.8520939294972626  0.26949345441251116  0.7503622908094271  1.0000
  O   O1        1.0  0.16861395177220875  0.23182098042454985  0.4575938812288272  1.0000
  O   O2        1.0  0.83138604819611  0.7681790196953827  0.5424061187978811  1.0000
  O   O3        1.0  0.3020453430160069  0.9746729368323221  0.49096094029856713  1.0000
  O   O4        1.0  0.6979546569523121  0.02532706328761018  0.5090390597281412  1.0000
  O   O5        1.0  0.08162060338476976  0.6437706008879841  0.3187018933134713  1.0000
  O   O6        1.0  0.918379396583549  0.35622939923194846  0.6812981067132371  1.0000
  O   O7        1.0  0.27397110587826073  0.6825283152501497  0.19288301840986413  1.0000
  O   O8        1.0  0.7260288940900577  0.317471684869783  0.8071169816168442  1.0000
  O   O9        1.0  0.44100025267761767  0.6609351990490038  0.4294076928805098  1.0000
  O   O10       1.0  0.5589997472907009  0.33906480107092885  0.5705923071461986  1.0000
  Cl  Cl1       1.0  0.6204034752826899  0.8926386906907171  0.15657308175887655  1.0000
  Cl  Cl2       1.0  0.3795965246856286  0.10736130942921558  0.8434269182678318  1.0000
  Cl  Cl3       1.0  0.5643512735558769  0.24464044852152408  0.012700979150118766  1.0000
  Cl  Cl4       1.0  0.43564872641244184  0.7553595515984086  0.9872990208765896  1.0000
  Cl  Cl5       1.0  0.034298159039727646  0.3010290948805376  0.00159196084741636  1.0000
  Cl  Cl6       1.0  0.9657018409285909  0.6989709052393951  0.9984080391792919  1.0000
  Cl  Cl7       1.0  0.8174925368096694  0.4203912041291538  0.179649991001837  1.0000
  Cl  Cl8       1.0  0.18250746315864932  0.5796087959907786  0.8203500090248714  1.0000
