data_image0
_chemical_formula_structural       H44C84N12F16I8
_chemical_formula_sum              "H44 C84 N12 F16 I8"
_cell_length_a       10.88890928062398
_cell_length_b       20.47926448496657
_cell_length_c       9.057314976852242
_cell_angle_alpha    90.0
_cell_angle_beta     90.0
_cell_angle_gamma    90.0

_space_group_name_H-M_alt    "P 1"
_space_group_IT_number       1

loop_
  _space_group_symop_operation_xyz
  'x, y, z'

loop_
  _atom_site_type_symbol
  _atom_site_label
  _atom_site_symmetry_multiplicity
  _atom_site_fract_x
  _atom_site_fract_y
  _atom_site_fract_z
  _atom_site_occupancy
  H   H1        1.0  0.736598654033453  0.5527066842810238  0.5711783871071614  1.0000
  H   H2        1.0  0.7634013458805907  0.4472933159647581  0.07117838693339251  1.0000
  H   H3        1.0  0.2634013459092427  0.05270668440228224  0.4288216132403763  1.0000
  H   H4        1.0  0.23659865406210523  0.9472933158434996  0.9288216134141452  1.0000
  H   H5        1.0  0.2634013459092427  0.4472933159647581  0.4288216132403763  1.0000
  H   H6        1.0  0.23659865406210523  0.5527066842810238  0.9288216134141452  1.0000
  H   H7        1.0  0.736598654033453  0.9472933158434996  0.5711783871071614  1.0000
  H   H8        1.0  0.7634013458805907  0.05270668440228224  0.07117838693339251  1.0000
  H   H9        1.0  0.6287718699413812  0.6587106338659126  0.5470031077269474  1.0000
  H   H10       1.0  0.8712281299726625  0.3412893663798693  0.047003107553178464  1.0000
  H   H11       1.0  0.37122813000131466  0.15871063398717103  0.45299689262059034  1.0000
  H   H12       1.0  0.12877186997003331  0.8412893662586108  0.9529968927943592  1.0000
  H   H13       1.0  0.37122813000131466  0.3412893663798693  0.45299689262059034  1.0000
  H   H14       1.0  0.12877186997003331  0.6587106338659126  0.9529968927943592  1.0000
  H   H15       1.0  0.6287718699413812  0.8412893662586108  0.5470031077269474  1.0000
  H   H16       1.0  0.8712281299726625  0.15871063398717103  0.047003107553178464  1.0000
  H   H17       1.0  0.43482859375320976  0.5772871974322421  0.17251759091887556  1.0000
  H   H18       1.0  0.06517140621813816  0.4227128023252409  0.6725175910926444  1.0000
  H   H19       1.0  0.5651714061894861  0.0772871975535006  0.8274824094286621  1.0000
  H   H20       1.0  0.9348285937245577  0.9227128022039824  0.32748240925489325  1.0000
  H   H21       1.0  0.5651714061894861  0.4227128023252409  0.8274824094286621  1.0000
  H   H22       1.0  0.9348285937245577  0.5772871974322421  0.32748240925489325  1.0000
  H   H23       1.0  0.43482859375320976  0.9227128022039824  0.17251759091887556  1.0000
  H   H24       1.0  0.06517140621813816  0.0772871975535006  0.6725175910926444  1.0000
  H   H25       1.0  0.54789252864986  0.4738831844827284  0.21616352473152373  1.0000
  H   H26       1.0  0.9521074721825494  0.5261168152747546  0.7161635249052926  1.0000
  H   H27       1.0  0.45210747221120146  0.9738831843614698  0.7838364756160139  1.0000
  H   H28       1.0  0.04789252776014642  0.02611681539601314  0.2838364754422451  1.0000
  H   H29       1.0  0.45210747221120146  0.5261168152747546  0.7838364756160139  1.0000
  H   H30       1.0  0.04789252776014642  0.4738831844827284  0.2838364754422451  1.0000
  H   H31       1.0  0.54789252864986  0.02611681539601314  0.21616352473152373  1.0000
  H   H32       1.0  0.9521074721825494  0.9738831843614698  0.7161635249052926  1.0000
  H   H33       1.0  0.6136582092652985  0.7499999998181123  0.40048671480128156  1.0000
  H   H34       1.0  0.8863417906487454  0.24999999993937078  0.9004867149750504  1.0000
  H   H35       1.0  0.38634179067739743  0.24999999993937078  0.5995132844421761  1.0000
  H   H36       1.0  0.11365820929395047  0.7499999998181123  0.09951328537248726  1.0000
  H   H37       1.0  0.28975837144812694  0.6493184161844037  0.24930577723871475  1.0000
  H   H38       1.0  0.21024162852322098  0.35068158406137817  0.7493057774124836  1.0000
  H   H39       1.0  0.710241628494569  0.14931841630566214  0.7506942231088229  1.0000
  H   H40       1.0  0.789758371419475  0.8506815839401196  0.25069422293505406  1.0000
  H   H41       1.0  0.710241628494569  0.35068158406137817  0.7506942231088229  1.0000
  H   H42       1.0  0.789758371419475  0.6493184161844037  0.25069422293505406  1.0000
  H   H43       1.0  0.28975837144812694  0.8506815839401196  0.24930577723871475  1.0000
  H   H44       1.0  0.21024162852322098  0.14931841630566214  0.7493057774124836  1.0000
  C   C1        1.0  0.8234083826884643  0.24999999993937078  0.4034045276484157  1.0000
  C   C2        1.0  0.6765916172255796  0.7499999998181123  0.9034045278221846  1.0000
  C   C3        1.0  0.1765916172542316  0.7499999998181123  0.5965954726991219  1.0000
  C   C4        1.0  0.32340838271711636  0.24999999993937078  0.09659547252535311  1.0000
  C   C5        1.0  0.8838626268221135  0.31009259071104606  0.4066306713868943  1.0000
  C   C6        1.0  0.6161373730919304  0.6899074095347357  0.9066306715606631  1.0000
  C   C7        1.0  0.11613737312058244  0.8100925905897876  0.5933693289606433  1.0000
  C   C8        1.0  0.3838626268507655  0.18990740916769544  0.09336932878687454  1.0000
  C   C9        1.0  0.11613737312058244  0.6899074095347357  0.5933693289606433  1.0000
  C   C10       1.0  0.3838626268507655  0.31009259071104606  0.09336932878687454  1.0000
  C   C11       1.0  0.8838626268221135  0.18990740916769544  0.4066306713868943  1.0000
  C   C12       1.0  0.6161373730919304  0.8100925905897876  0.9066306715606631  1.0000
  C   C13       1.0  0.011664034177050456  0.3086272617182969  0.41102038954306  1.0000
  C   C14       1.0  0.4883359657942975  0.6913727385274849  0.9110203897168289  1.0000
  C   C15       1.0  0.9883359657656453  0.8086272615970383  0.5889796108044777  1.0000
  C   C16       1.0  0.5116640341483983  0.1913727386487434  0.08897961063070882  1.0000
  C   C17       1.0  0.9883359657656453  0.6913727385274849  0.5889796108044777  1.0000
  C   C18       1.0  0.5116640341483983  0.3086272617182969  0.08897961063070882  1.0000
  C   C19       1.0  0.011664034177050456  0.1913727386487434  0.41102038954306  1.0000
  C   C20       1.0  0.4883359657942975  0.8086272615970383  0.9110203897168289  1.0000
  C   C21       1.0  0.07665090676117484  0.24999999993937078  0.41191764772837974  1.0000
  C   C22       1.0  0.4233490932101731  0.7499999998181123  0.9119176479021487  1.0000
  C   C23       1.0  0.923349093181521  0.7499999998181123  0.5880823526191579  1.0000
  C   C24       1.0  0.5766509067325227  0.24999999993937078  0.08808235244538906  1.0000
  C   C25       1.0  0.6688482760123292  0.5600545375259712  0.4839552462515082  1.0000
  C   C26       1.0  0.8311517239017147  0.43994546271981055  0.9839552464252771  1.0000
  C   C27       1.0  0.33115172393036674  0.06005453764722975  0.5160447529919495  1.0000
  C   C28       1.0  0.1688482760409812  0.939945462598552  0.016044753922260634  1.0000
  C   C29       1.0  0.33115172393036674  0.43994546271981055  0.5160447529919495  1.0000
  C   C30       1.0  0.1688482760409812  0.5600545375259712  0.016044753922260634  1.0000
  C   C31       1.0  0.6688482760123292  0.939945462598552  0.4839552462515082  1.0000
  C   C32       1.0  0.8311517239017147  0.06005453764722975  0.9839552464252771  1.0000
  C   C33       1.0  0.6082623061049561  0.6194680135760114  0.46977738887013354  1.0000
  C   C34       1.0  0.8917376938090877  0.38053198618147155  0.9697773890439024  1.0000
  C   C35       1.0  0.3917376938377398  0.11946801369726993  0.5302226103733242  1.0000
  C   C36       1.0  0.10826230613360814  0.880531986548512  0.030222610199555352  1.0000
  C   C37       1.0  0.3917376938377398  0.38053198618147155  0.5302226103733242  1.0000
  C   C38       1.0  0.10826230613360814  0.6194680135760114  0.030222610199555352  1.0000
  C   C39       1.0  0.6082623061049561  0.880531986548512  0.46977738887013354  1.0000
  C   C40       1.0  0.8917376938090877  0.11946801369726993  0.9697773890439024  1.0000
  C   C41       1.0  0.5219903567489625  0.627930960579173  0.35599952946768343  1.0000
  C   C42       1.0  0.9780096431650812  0.37206903917831  0.8559995296414522  1.0000
  C   C43       1.0  0.47800964319373335  0.12793096070043147  0.6440004708798542  1.0000
  C   C44       1.0  0.021990356777614597  0.8720690390570516  0.14400047070608543  1.0000
  C   C45       1.0  0.47800964319373335  0.37206903917831  0.6440004708798542  1.0000
  C   C46       1.0  0.021990356777614597  0.627930960579173  0.14400047070608543  1.0000
  C   C47       1.0  0.5219903567489625  0.8720690390570516  0.35599952946768343  1.0000
  C   C48       1.0  0.9780096431650812  0.12793096070043147  0.8559995296414522  1.0000
  C   C49       1.0  0.4992835590681363  0.574013289326352  0.2641402839709401  1.0000
  C   C50       1.0  0.0007164409032116535  0.425986710431131  0.7641402841447089  1.0000
  C   C51       1.0  0.5007164408745596  0.07401328944761046  0.7358597163765975  1.0000
  C   C52       1.0  0.9992835599578499  0.9259867107981714  0.23585971620282875  1.0000
  C   C53       1.0  0.5007164408745596  0.425986710431131  0.7358597163765975  1.0000
  C   C54       1.0  0.9992835599578499  0.574013289326352  0.23585971620282875  1.0000
  C   C55       1.0  0.4992835590681363  0.9259867107981714  0.2641402839709401  1.0000
  C   C56       1.0  0.0007164409032116535  0.07401328944761046  0.7641402841447089  1.0000
  C   C57       1.0  0.563674936747042  0.5162354203570537  0.2868108988854897  1.0000
  C   C58       1.0  0.9363250631670019  0.4837645794004292  0.7868108990592586  1.0000
  C   C59       1.0  0.43632506319565384  0.0162354204783123  0.713189100357968  1.0000
  C   C60       1.0  0.06367493677569404  0.9837645792791707  0.21318910128827911  1.0000
  C   C61       1.0  0.43632506319565384  0.4837645794004292  0.713189100357968  1.0000
  C   C62       1.0  0.06367493677569404  0.5162354203570537  0.21318910128827911  1.0000
  C   C63       1.0  0.563674936747042  0.9837645792791707  0.2868108988854897  1.0000
  C   C64       1.0  0.9363250631670019  0.0162354204783123  0.7868108990592586  1.0000
  C   C65       1.0  0.5186649493030181  0.7499999998181123  0.36350955646507066  1.0000
  C   C66       1.0  0.9813350506110257  0.24999999993937078  0.8635095555347595  1.0000
  C   C67       1.0  0.48133505063967774  0.24999999993937078  0.636490443882467  1.0000
  C   C68       1.0  0.018664949331670202  0.7499999998181123  0.1364904437086982  1.0000
  C   C69       1.0  0.45996147097232437  0.6909085543763902  0.3319467919227524  1.0000
  C   C70       1.0  0.04003852899902356  0.3090914458693917  0.8319467920965212  1.0000
  C   C71       1.0  0.5400385289703715  0.1909085544976486  0.6680532084247853  1.0000
  C   C72       1.0  0.9599614709436723  0.8090914457481332  0.16805320825101647  1.0000
  C   C73       1.0  0.5400385289703715  0.3090914458693917  0.6680532084247853  1.0000
  C   C74       1.0  0.9599614709436723  0.6909085543763902  0.16805320825101647  1.0000
  C   C75       1.0  0.45996147097232437  0.8090914457481332  0.3319467919227524  1.0000
  C   C76       1.0  0.04003852899902356  0.1909085544976486  0.8319467920965212  1.0000
  C   C77       1.0  0.34088701671939114  0.6939460516481141  0.2731855374714949  1.0000
  C   C78       1.0  0.15911298325195677  0.30605394859766766  0.7731855376452638  1.0000
  C   C79       1.0  0.6591129832233047  0.1939460517693726  0.7268144617719627  1.0000
  C   C80       1.0  0.8408870166907391  0.8060539484764092  0.226814461598194  1.0000
  C   C81       1.0  0.6591129832233047  0.30605394859766766  0.7268144617719627  1.0000
  C   C82       1.0  0.8408870166907391  0.6939460516481141  0.226814461598194  1.0000
  C   C83       1.0  0.34088701671939114  0.8060539484764092  0.2731855374714949  1.0000
  C   C84       1.0  0.15911298325195677  0.1939460517693726  0.7731855376452638  1.0000
  N   N1        1.0  0.6480855564255016  0.5092403288045637  0.3936713031524915  1.0000
  N   N2        1.0  0.8519144434885422  0.4907596709529193  0.8936713033262602  1.0000
  N   N3        1.0  0.3519144435171943  0.009240328925822206  0.6063286971950462  1.0000
  N   N4        1.0  0.14808555645415367  0.9907596713199597  0.10632869702127738  1.0000
  N   N5        1.0  0.3519144435171943  0.4907596709529193  0.6063286971950462  1.0000
  N   N6        1.0  0.14808555645415367  0.5092403288045637  0.10632869702127738  1.0000
  N   N7        1.0  0.6480855564255016  0.9907596713199597  0.3936713031524915  1.0000
  N   N8        1.0  0.8519144434885422  0.009240328925822206  0.8936713033262602  1.0000
  N   N9        1.0  0.28236035866980913  0.7499999998181123  0.24559809675218816  1.0000
  N   N10       1.0  0.21763964221990445  0.24999999993937078  0.745598096925957  1.0000
  N   N11       1.0  0.7176396421912523  0.24999999993937078  0.7544019024912695  1.0000
  N   N12       1.0  0.782360358641157  0.7499999998181123  0.25440190231750065  1.0000
  F   F1        1.0  0.6985754049338635  0.24999999993937078  0.39774296457690367  1.0000
  F   F2        1.0  0.8014245949801805  0.7499999998181123  0.8977429647506725  1.0000
  F   F3        1.0  0.30142459500883245  0.7499999998181123  0.602257035770634  1.0000
  F   F4        1.0  0.1985754049625155  0.24999999993937078  0.10225703559686519  1.0000
  F   F5        1.0  0.07725742297228443  0.36507573333448284  0.41520672512892676  1.0000
  F   F6        1.0  0.42274257699906354  0.6349242664230001  0.9152067253026955  1.0000
  F   F7        1.0  0.9227425769704115  0.8650757332132243  0.584793275218611  1.0000
  F   F8        1.0  0.5772574229436324  0.13492426654425868  0.08479327504484212  1.0000
  F   F9        1.0  0.9227425769704115  0.6349242664230001  0.584793275218611  1.0000
  F   F10       1.0  0.5772574229436324  0.36507573333448284  0.08479327504484212  1.0000
  F   F11       1.0  0.07725742297228443  0.13492426654425868  0.41520672512892676  1.0000
  F   F12       1.0  0.42274257699906354  0.8650757332132243  0.9152067253026955  1.0000
  F   F13       1.0  0.20105246205839888  0.24999999993937078  0.4141436076349885  1.0000
  F   F14       1.0  0.2989475379129491  0.7499999998181123  0.9141436078087575  1.0000
  F   F15       1.0  0.798947537884297  0.7499999998181123  0.5858563916084691  1.0000
  F   F16       1.0  0.7010524620297468  0.24999999993937078  0.0858563925387803  1.0000
  I   I1        1.0  0.7833082056416243  0.39951751275081776  0.4056701648767162  1.0000
  I   I2        1.0  0.7166917951907851  0.6004824874949641  0.9056701650504849  1.0000
  I   I3        1.0  0.21669179430107152  0.8995175126295593  0.5943298343667415  1.0000
  I   I4        1.0  0.2833082056702764  0.10048248712792378  0.09432983529705263  1.0000
  I   I5        1.0  0.21669179430107152  0.6004824874949641  0.5943298343667415  1.0000
  I   I6        1.0  0.2833082056702764  0.39951751275081776  0.09432983529705263  1.0000
  I   I7        1.0  0.7833082056416243  0.10048248712792378  0.4056701648767162  1.0000
  I   I8        1.0  0.7166917951907851  0.8995175126295593  0.9056701650504849  1.0000
