data_image0
_chemical_formula_structural       H92C100N8O12S4Cl4
_chemical_formula_sum              "H92 C100 N8 O12 S4 Cl4"
_cell_length_a       9.169330657793608
_cell_length_b       11.75060096185379
_cell_length_c       20.838524655535164
_cell_angle_alpha    90.0
_cell_angle_beta     99.9914060979781
_cell_angle_gamma    90.0

_space_group_name_H-M_alt    "P 1"
_space_group_IT_number       1

loop_
  _space_group_symop_operation_xyz
  'x, y, z'

loop_
  _atom_site_type_symbol
  _atom_site_label
  _atom_site_symmetry_multiplicity
  _atom_site_fract_x
  _atom_site_fract_y
  _atom_site_fract_z
  _atom_site_occupancy
  H   H1        1.0  0.4657247700061638  0.6131851122670822  0.5731373640659286  1.0000
  H   H2        1.0  0.03427522995949041  0.11318511234596283  0.9268626363268797  1.0000
  H   H3        1.0  0.5342752306051819  0.38681488757515653  0.42686263634784416  1.0000
  H   H4        1.0  0.9657247693662955  0.8868148874962759  0.07313736360116652  1.0000
  H   H5        1.0  0.4143074710621159  0.6907844923294401  0.45948426157248234  1.0000
  H   H6        1.0  0.08569252914576643  0.19078449240832068  0.04051573839077004  1.0000
  H   H7        1.0  0.5856925293536488  0.3092155075127987  0.5405157383540224  1.0000
  H   H8        1.0  0.9143074712699982  0.8092155074339181  0.9594842615357349  1.0000
  H   H9        1.0  0.1564732934776013  0.7256157295851924  0.4049412152805416  1.0000
  H   H10       1.0  0.34352670564030213  0.22561572966407292  0.0950587846842522  1.0000
  H   H11       1.0  0.8435267060437656  0.2743842702570464  0.5950587851347727  1.0000
  H   H12       1.0  0.6564732936854838  0.7743842701781657  0.9049412152437941  1.0000
  H   H13       1.0  0.9440940915045327  0.680135254013355  0.4606050184223497  1.0000
  H   H14       1.0  0.5559059086625255  0.18013525409223555  0.03939498201392909  1.0000
  H   H15       1.0  0.05590590801683407  0.3198647458288838  0.5393949819929647  1.0000
  H   H16       1.0  0.4440940919488201  0.8198647457500031  0.9606050183998437  1.0000
  H   H17       1.0  0.7811806474547207  0.5536305267380712  0.6070496768269791  1.0000
  H   H18       1.0  0.7188193520789475  0.05363052681695186  0.8929503230643197  1.0000
  H   H19       1.0  0.21881935296104402  0.4463694731041675  0.3929503230995258  1.0000
  H   H20       1.0  0.28118064724683833  0.9463694730252868  0.10704967686372664  1.0000
  H   H21       1.0  0.7922891577596587  0.5675774049047302  0.5232529827575413  1.0000
  H   H22       1.0  0.7077108417740094  0.06757740498361078  0.9767470171337573  1.0000
  H   H23       1.0  0.20771084156612715  0.4324225949375086  0.476747017170505  1.0000
  H   H24       1.0  0.2922891575517763  0.9324225948586279  0.023252982794288873  1.0000
  H   H25       1.0  0.6867048610228453  0.7345263181023163  0.47027665888933773  1.0000
  H   H26       1.0  0.8132951389486319  0.23452631818119687  0.02972334105967306  1.0000
  H   H27       1.0  0.3132951393929193  0.2654736817399225  0.5297233410371672  1.0000
  H   H28       1.0  0.18670486146713275  0.7654736816610418  0.9702766588668318  1.0000
  H   H29       1.0  0.6070529734496262  0.9363369180621234  0.4733061334332736  1.0000
  H   H30       1.0  0.8929470265218512  0.43633691814100406  0.02669386651573716  1.0000
  H   H31       1.0  0.39294702587615965  0.06366308178011536  0.5266938664947727  1.0000
  H   H32       1.0  0.10705297389391356  0.5636630825522551  0.9733061334107679  1.0000
  H   H33       1.0  0.6577945433385256  0.04551386109835415  0.5776234572669398  1.0000
  H   H34       1.0  0.8422054563907236  0.5455138610194735  0.922376543111627  1.0000
  H   H35       1.0  0.34220545707723915  0.9544861387438845  0.42237654265956515  1.0000
  H   H36       1.0  0.15779454313064323  0.45448613882276523  0.07762345730368732  1.0000
  H   H37       1.0  0.7808534346446532  0.9490300492887045  0.6793585424341829  1.0000
  H   H38       1.0  0.7191465659789941  0.44903004936758506  0.8206414574555746  1.0000
  H   H39       1.0  0.21914656577111158  0.050969950553534274  0.320641457492322  1.0000
  H   H40       1.0  0.2808534344367708  0.5509699504746537  0.17935854247093047  1.0000
  H   H41       1.0  0.8560108001872199  0.7466954216625686  0.6763994890336613  1.0000
  H   H42       1.0  0.6439891993464484  0.24669542174144926  0.8236005108576375  1.0000
  H   H43       1.0  0.1439892002285449  0.2533045781796701  0.32360051089284364  1.0000
  H   H44       1.0  0.3560107999793375  0.7533045781007894  0.17639948907040887  1.0000
  H   H45       1.0  0.5792130993038026  0.5433005818787361  0.6734721185011612  1.0000
  H   H46       1.0  0.9207869004254468  0.043300581957616734  0.8265278818774057  1.0000
  H   H47       1.0  0.4207869013075432  0.4566994179635026  0.3265278819126117  1.0000
  H   H48       1.0  0.07921309890033916  0.9566994178846221  0.17347211805064078  1.0000
  H   H49       1.0  0.8087910421132911  0.4278496152086894  0.6966201975751819  1.0000
  H   H50       1.0  0.691208958510356  0.9278496151298088  0.8033798023145754  1.0000
  H   H51       1.0  0.1912089583024736  0.5721503854845696  0.30337980235132295  1.0000
  H   H52       1.0  0.3087910419054088  0.07215038471242992  0.19662019761192948  1.0000
  H   H53       1.0  0.5547061110735872  0.11752654647053308  0.6953628942088353  1.0000
  H   H54       1.0  0.945293888655662  0.6175265463916524  0.8046371061697314  1.0000
  H   H55       1.0  0.4452938884477797  0.8824734533717057  0.304637106206479  1.0000
  H   H56       1.0  0.054706110670123806  0.3824734534505863  0.19536289375831484  1.0000
  H   H57       1.0  0.07732708955312631  0.33044357327809615  0.6555568179444446  1.0000
  H   H58       1.0  0.42267291041252797  0.8304435731992155  0.8444431824483638  1.0000
  H   H59       1.0  0.9226729099682406  0.6695564265641426  0.3444431824708696  1.0000
  H   H60       1.0  0.5773270901988179  0.1695564266430232  0.1555568179654092  1.0000
  H   H61       1.0  0.24388879842788608  0.16143589218612459  0.6716172520337788  1.0000
  H   H62       1.0  0.2561112013421871  0.6614358929582642  0.8283827478717616  1.0000
  H   H63       1.0  0.7561112019878786  0.8385641076561142  0.3283827478927261  1.0000
  H   H64       1.0  0.7438887979835987  0.3385641077349948  0.1716172520562847  1.0000
  H   H65       1.0  0.32479945595640136  0.5913816955029765  0.737101931708977  1.0000
  H   H66       1.0  0.1752005440092529  0.09138169558185709  0.7628980686838315  1.0000
  H   H67       1.0  0.6752005435649656  0.4086183043392623  0.26289806870633736  1.0000
  H   H68       1.0  0.8247994566020929  0.9086183042603817  0.2371019317299414  1.0000
  H   H69       1.0  0.40811730043210787  0.9558054278636774  0.6346931286381337  1.0000
  H   H70       1.0  0.09188270042794425  0.45580542794255796  0.8653068712658654  1.0000
  H   H71       1.0  0.591882699983657  0.044194571978561394  0.36530687128837125  1.0000
  H   H72       1.0  0.9081172999878205  0.5441945718996808  0.13469312866063948  1.0000
  H   H73       1.0  0.38763261740551097  0.8093095553897279  0.6591985272223227  1.0000
  H   H74       1.0  0.1123673823645622  0.30930955546860855  0.8408014726832176  1.0000
  H   H75       1.0  0.6123673819202748  0.1906904444525108  0.3408014727057236  1.0000
  H   H76       1.0  0.8876326180512025  0.6906904443736301  0.15919852724328717  1.0000
  H   H77       1.0  0.4221112262232125  0.9195836591744229  0.719748379674082  1.0000
  H   H78       1.0  0.07788877354686075  0.41958365925330343  0.7802516202314584  1.0000
  H   H79       1.0  0.5778887741925522  0.08041634151883625  0.2802516202524229  1.0000
  H   H80       1.0  0.9221112257789252  0.5804163414399557  0.21974837969658786  1.0000
  H   H81       1.0  0.9967025820832682  0.9246056133869408  0.5704415090707567  1.0000
  H   H82       1.0  0.5032974174504  0.4246056134658215  0.929558490820542  1.0000
  H   H83       1.0  0.003297417242517575  0.0753943864552979  0.4295584908572895  1.0000
  H   H84       1.0  0.49670258296536474  0.5753943863764173  0.070441509105963  1.0000
  H   H85       1.0  0.15180778180164492  0.8370962661341366  0.5604671594646674  1.0000
  H   H86       1.0  0.3481922179684282  0.33709626621301714  0.9395328404408729  1.0000
  H   H87       1.0  0.8481922175241409  0.16290373370810224  0.43953284046337887  1.0000
  H   H88       1.0  0.6518077824473365  0.6629037336292216  0.06046715948563189  1.0000
  H   H89       1.0  0.16946836964918663  0.9899750572556925  0.5605033456447238  1.0000
  H   H90       1.0  0.3305316301208866  0.4899750573345731  0.9394966542608166  1.0000
  H   H91       1.0  0.8305316296765992  0.010024942586546303  0.43949665428332235  1.0000
  H   H92       1.0  0.6694683702948782  0.5100249425076657  0.060503345665688345  1.0000
  C   C1        1.0  0.23011875401451348  0.5557607216175722  0.6473175730016096  1.0000
  C   C2        1.0  0.26988124575555966  0.055760721696452825  0.8526824269039307  1.0000
  C   C3        1.0  0.7698812464012513  0.4442392782246665  0.35268242692489526  1.0000
  C   C4        1.0  0.7301187535702262  0.944239278145786  0.1473175730241155  1.0000
  C   C5        1.0  0.23413536360041837  0.6009982853579836  0.5794689935722108  1.0000
  C   C6        1.0  0.2658646372596338  0.10099828543686419  0.9205310063317882  1.0000
  C   C7        1.0  0.7658646368153464  0.3990017144842552  0.4205310063542941  1.0000
  C   C8        1.0  0.7341353631561309  0.8990017144053746  0.07946899359471671  1.0000
  C   C9        1.0  0.3522700784522402  0.6266965012177756  0.5483940781499631  1.0000
  C   C10       1.0  0.147729921317833  0.12669650129665633  0.9516059217555773  1.0000
  C   C11       1.0  0.6477299219635245  0.37330349862446305  0.45160592177654174  1.0000
  C   C12       1.0  0.8522700780079527  0.8733034985455824  0.048394078172469  1.0000
  C   C13       1.0  0.32304706323777527  0.6711430007368612  0.4849116956314392  1.0000
  C   C14       1.0  0.1769529358801282  0.17114300081574185  0.015088304333354575  1.0000
  C   C15       1.0  0.6769529360880105  0.3288569991053775  0.515088304296607  1.0000
  C   C16       1.0  0.8230470634456577  0.8288569990264969  0.9849116955946917  1.0000
  C   C17       1.0  0.17730465678115145  0.6897483155381826  0.45385478840103716  1.0000
  C   C18       1.0  0.3226953434267309  0.18974831561706323  0.04614521156221531  1.0000
  C   C19       1.0  0.8226953438301944  0.31025168430405614  0.5461452120127358  1.0000
  C   C20       1.0  0.6773046569890339  0.8102516842251756  0.9538547883642897  1.0000
  C   C21       1.0  0.05722436147035512  0.6643579154243036  0.48473678933413383  1.0000
  C   C22       1.0  0.4427756376475483  0.16435791550318418  0.015263210630659963  1.0000
  C   C23       1.0  0.9427756378554307  0.3356420844179352  0.5152632105939123  1.0000
  C   C24       1.0  0.5572243616782376  0.8356420843390546  0.9847367892973865  1.0000
  C   C25       1.0  0.08841213653593741  0.6204201907346424  0.5475299501235639  1.0000
  C   C26       1.0  0.4115878632341358  0.12042019081352298  0.9524700497819766  1.0000
  C   C27       1.0  0.9115878638798273  0.3795798099586167  0.45247004980294103  1.0000
  C   C28       1.0  0.5884121360916501  0.879579809879736  0.047529950146069776  1.0000
  C   C29       1.0  0.060404602376657346  0.5601570218721466  0.6492787712913215  1.0000
  C   C30       1.0  0.43959539758899696  0.06015702195102722  0.850721229101487  1.0000
  C   C31       1.0  0.9395953971447094  0.43984297797009214  0.35072122912399273  1.0000
  C   C32       1.0  0.560404603022349  0.9398429778912115  0.14927877131228606  1.0000
  C   C33       1.0  0.8276605913303076  0.6053948970859891  0.5716920781315045  1.0000
  C   C34       1.0  0.6723394082033607  0.10539489631384946  0.9283079217597943  1.0000
  C   C35       1.0  0.17233940799547834  0.39460510360726986  0.4283079217965418  1.0000
  C   C36       1.0  0.32766059112242507  0.8946051035283893  0.07169207816825197  1.0000
  C   C37       1.0  0.7768191812572413  0.7275936735282681  0.5730896384358227  1.0000
  C   C38       1.0  0.7231808193664059  0.22759367360714877  0.9269103614539346  1.0000
  C   C39       1.0  0.22318081915852356  0.2724063263139706  0.4269103614906821  1.0000
  C   C40       1.0  0.2768191810493588  0.77240632623509  0.0730896384725703  1.0000
  C   C41       1.0  0.7064692931126267  0.7815785447752213  0.5161951921683057  1.0000
  C   C42       1.0  0.7935307075110204  0.2815785448541019  0.9838048077214517  1.0000
  C   C43       1.0  0.2935307073031382  0.2184214550670175  0.4838048077581994  1.0000
  C   C44       1.0  0.20646929290474425  0.7184214549881368  0.016195192205053128  1.0000
  C   C45       1.0  0.662140814151886  0.8952307421679674  0.5179221547573962  1.0000
  C   C46       1.0  0.8378591864717613  0.39523074224684807  0.9820778451323611  1.0000
  C   C47       1.0  0.3378591862638788  0.10476925767427131  0.4820778451691086  1.0000
  C   C48       1.0  0.16214081394400356  0.6047692575953907  0.01792215479414381  1.0000
  C   C49       1.0  0.6892441907348396  0.9560613398812636  0.5764136338251132  1.0000
  C   C50       1.0  0.8107558098888076  0.45606133996014436  0.9235863660646441  1.0000
  C   C51       1.0  0.3107558096809252  0.04393865996097505  0.42358636610139166  1.0000
  C   C52       1.0  0.18924419052695715  0.5439386598820944  0.07641363386186077  1.0000
  C   C53       1.0  0.7584693840708375  0.9022051403511792  0.6335545490983031  1.0000
  C   C54       1.0  0.7415306154628308  0.4022051404300599  0.8664454507929957  1.0000
  C   C55       1.0  0.24153061525494843  0.09779485949105951  0.3664454508297433  1.0000
  C   C56       1.0  0.2584693849529339  0.5977948594121788  0.1335545491335092  1.0000
  C   C57       1.0  0.8015303206744684  0.7885191183054395  0.6319025847749692  1.0000
  C   C58       1.0  0.6984696788591997  0.28851911838432015  0.8680974151163293  1.0000
  C   C59       1.0  0.19846967865131745  0.2114808815367992  0.36809741515307703  1.0000
  C   C60       1.0  0.301530320466586  0.7114808814579185  0.13190258481171677  1.0000
  C   C61       1.0  0.28252432358173263  0.4346416839938598  0.6569073297498009  1.0000
  C   C62       1.0  0.2174756763839217  0.9346416839149793  0.8430926706430076  1.0000
  C   C63       1.0  0.7174756770296132  0.5653583158483789  0.343092670663972  1.0000
  C   C64       1.0  0.7825243231374451  0.06535831592725956  0.15690732977230681  1.0000
  C   C65       1.0  0.43396780325108747  0.3962515053583636  0.6670145914287022  1.0000
  C   C66       1.0  0.06603219651898574  0.896251505279483  0.8329854084768382  1.0000
  C   C67       1.0  0.5660321960746983  0.6037484953348954  0.3329854084993441  1.0000
  C   C68       1.0  0.9339678038967791  0.10374849456275573  0.16701459144966668  1.0000
  C   C69       1.0  0.5722636408075497  0.45089744151810013  0.6754110892481422  1.0000
  C   C70       1.0  0.9277363587261185  0.9508974414392194  0.8245889106431565  1.0000
  C   C71       1.0  0.42773635851823616  0.5491025583241387  0.32458891067990414  1.0000
  C   C72       1.0  0.07226364168964625  0.04910255840301926  0.17541108928334834  1.0000
  C   C73       1.0  0.7009260810998417  0.3864082462454482  0.6893992867707718  1.0000
  C   C74       1.0  0.7990739184338266  0.8864082461665675  0.810600713120527  1.0000
  C   C75       1.0  0.2990739182259442  0.6135917535967905  0.31060071315727455  1.0000
  C   C76       1.0  0.20092608089195924  0.11359175367567113  0.18939928680751925  1.0000
  C   C77       1.0  0.6921269368029505  0.26723779661943325  0.6950079175526037  1.0000
  C   C78       1.0  0.8078730627307179  0.7672377965405527  0.8049920823386949  1.0000
  C   C79       1.0  0.30787306252283553  0.7327622032228055  0.30499208237544256  1.0000
  C   C80       1.0  0.19212693659506797  0.2327622033016861  0.19500791758935132  1.0000
  C   C81       1.0  0.5583624479540847  0.20887745554188106  0.687440360028984  1.0000
  C   C82       1.0  0.9416375515795835  0.7088774554630005  0.8125596398623146  1.0000
  C   C83       1.0  0.4416375513717011  0.7911225443003576  0.31255963989906227  1.0000
  C   C84       1.0  0.058362447746202355  0.2911225443792383  0.18744036006573156  1.0000
  C   C85       1.0  0.4298840218686617  0.2750757472314052  0.673528545274072  1.0000
  C   C86       1.0  0.07011597790141151  0.7750757471525246  0.8264714546314683  1.0000
  C   C87       1.0  0.5701159774571241  0.7249242526108335  0.3264714546539742  1.0000
  C   C88       1.0  0.9298840225143533  0.22492425268971417  0.17352854529503656  1.0000
  C   C89       1.0  0.19605464958182153  0.33825960245806336  0.6583498232243739  1.0000
  C   C90       1.0  0.3039453503838327  0.8382596023791827  0.8416501771684346  1.0000
  C   C91       1.0  0.8039453510295242  0.6617403973841753  0.3416501771893991  1.0000
  C   C92       1.0  0.6960546491375342  0.161740397463056  0.1583498232468797  1.0000
  C   C93       1.0  0.36898705635443063  0.8989450628347732  0.6698290881481205  1.0000
  C   C94       1.0  0.1310129434156426  0.3989450629136538  0.8301709117574199  1.0000
  C   C95       1.0  0.6310129440613341  0.10105493700746565  0.33017091177838437  1.0000
  C   C96       1.0  0.8689870559101432  0.601054936928585  0.1698290881706264  1.0000
  C   C97       1.0  0.11751421355264347  0.9170330960077137  0.580405193271719  1.0000
  C   C98       1.0  0.38248578621742974  0.4170330960865944  0.9195948066338214  1.0000
  C   C99       1.0  0.8824857857731424  0.08296690383452497  0.41959480665632715  1.0000
  C   C100      1.0  0.617514214198335  0.5829669037556443  0.08040519329268354  1.0000
  N   N1        1.0  0.9878186225135693  0.5937649531840867  0.5890420116108209  1.0000
  N   N2        1.0  0.5121813781100778  0.09376495326296737  0.9109579882789364  1.0000
  N   N3        1.0  0.012181377902195433  0.40623504665815197  0.410957988315684  1.0000
  N   N4        1.0  0.4878186223056869  0.9062350465792715  0.08904201164756846  1.0000
  N   N5        1.0  0.2838858928415988  0.24290942899568066  0.6667507372776611  1.0000
  N   N6        1.0  0.21611410692847444  0.7429094289168  0.8332492626278795  1.0000
  N   N7        1.0  0.716114106484187  0.7570905708465581  0.33324926265038524  1.0000
  N   N8        1.0  0.7838858934872904  0.2570905709254387  0.16675073729862555  1.0000
  O   O1        1.0  0.3100375176840259  0.6310275460864776  0.6940711003810645  1.0000
  O   O2        1.0  0.18996248208604732  0.1310275453143379  0.805928899524476  1.0000
  O   O3        1.0  0.6899624827317389  0.3689724546067815  0.3059288995454404  1.0000
  O   O4        1.0  0.8100375172397385  0.8689724545279008  0.19407110040357037  1.0000
  O   O5        1.0  0.0013466885427672588  0.5377106584175246  0.6965454790499165  1.0000
  O   O6        1.0  0.4986533112273059  0.03771065849640531  0.8034545208556237  1.0000
  O   O7        1.0  0.9986533107830187  0.46228934142471406  0.30345452087812974  1.0000
  O   O8        1.0  0.5013466891884589  0.9622893413458333  0.196545479070881  1.0000
  O   O9        1.0  0.15010057485628683  0.040634911486660805  0.6862433902693492  1.0000
  O   O10       1.0  0.3498994251093674  0.5406349114077802  0.8137566101234592  1.0000
  O   O11       1.0  0.8498994246650801  0.959365088355578  0.3137566101459651  1.0000
  O   O12       1.0  0.6501005755019784  0.45936508843445856  0.18624339029031367  1.0000
  S   S1        1.0  0.17349536285580067  0.9169648322650674  0.6673119308371334  1.0000
  S   S2        1.0  0.32650463800425145  0.41696483234394804  0.8326880690668657  1.0000
  S   S3        1.0  0.8265046375599641  0.08303516757717133  0.3326880690893715  1.0000
  S   S4        1.0  0.6734953624115133  0.5830351674982907  0.16731193085963925  1.0000
  Cl  Cl1       1.0  0.8562440259229775  0.19030684109344576  0.7136370265531873  1.0000
  Cl  Cl2       1.0  0.6437559747006696  0.6903068410145651  0.78636297333657  1.0000
  Cl  Cl3       1.0  0.1437559744927873  0.809693158748793  0.2863629733733177  1.0000
  Cl  Cl4       1.0  0.3562440257150951  0.3096931588276736  0.21363702658993475  1.0000
