data_image0
_chemical_formula_structural       H42C22N10S2Cl4
_chemical_formula_sum              "H42 C22 N10 S2 Cl4"
_cell_length_a       8.165108564808069
_cell_length_b       10.583659278962433
_cell_length_c       10.896604608300104
_cell_angle_alpha    109.74224764867493
_cell_angle_beta     111.32161694154131
_cell_angle_gamma    95.81340681388221

_space_group_name_H-M_alt    "P 1"
_space_group_IT_number       1

loop_
  _space_group_symop_operation_xyz
  'x, y, z'

loop_
  _atom_site_type_symbol
  _atom_site_label
  _atom_site_symmetry_multiplicity
  _atom_site_fract_x
  _atom_site_fract_y
  _atom_site_fract_z
  _atom_site_occupancy
  H   H1        1.0  0.23965244500941335  0.6631500694825684  0.5740592032505213  1.0000
  H   H2        1.0  0.7603475551451784  0.3368499307110541  0.42594079644039007  1.0000
  H   H3        1.0  0.11992606434805787  0.8926398375544167  0.08216603362329272  1.0000
  H   H4        1.0  0.8800739358065338  0.10736016263920578  0.9178339660676186  1.0000
  H   H5        1.0  0.9360735689878834  0.5396049750095779  0.8058826646520942  1.0000
  H   H6        1.0  0.0639264299415334  0.4603950251880098  0.19411733503677744  1.0000
  H   H7        1.0  0.5208329322836024  0.5436312627110337  0.690768411119898  1.0000
  H   H8        1.0  0.4791670665165277  0.45636873653795684  0.3092315885718598  1.0000
  H   H9        1.0  0.49698812178881646  0.6257259078020593  0.5680157865674789  1.0000
  H   H10       1.0  0.5030118788122574  0.37427409186524147  0.4319842142033747  1.0000
  H   H11       1.0  0.6149073729885524  0.7248063024274123  0.7581307653027841  1.0000
  H   H12       1.0  0.3850926270367526  0.27519369681761296  0.24186923439101327  1.0000
  H   H13       1.0  0.8740771975400016  0.7444468127434419  0.6459902954116582  1.0000
  H   H14       1.0  0.12592280261459018  0.2555531874501806  0.3540097042792531  1.0000
  H   H15       1.0  0.020455804255631486  0.7156122453271768  0.5597180985768451  1.0000
  H   H16       1.0  0.9795441958989604  0.28438775486644574  0.4402819011140663  1.0000
  H   H17       1.0  0.8997918480311339  0.5713108389441124  0.5698044758422951  1.0000
  H   H18       1.0  0.10020815212345793  0.4286891612495101  0.43019552384861615  1.0000
  H   H19       1.0  0.37324001942899176  0.9562536039153308  0.9832222524627185  1.0000
  H   H20       1.0  0.6267599800761939  0.04374639670453242  0.01677774830320938  1.0000
  H   H21       1.0  0.17286032751447122  0.9985019997424536  0.8833808188502028  1.0000
  H   H22       1.0  0.8271396725108338  0.00149799950257173  0.11661918084359463  1.0000
  H   H23       1.0  0.2743433840879826  0.07408432877058606  0.07586793511035696  1.0000
  H   H24       1.0  0.7256566160666093  0.9259156714230364  0.9241320645805543  1.0000
  H   H25       1.0  0.8269011970619233  0.7320624881001009  0.004816771855365968  1.0000
  H   H26       1.0  0.17309880296338148  0.26793751114492437  0.9951832278384313  1.0000
  H   H27       1.0  0.817999506330592  0.5550781292502438  0.9727617522833908  1.0000
  H   H28       1.0  0.18200049317459363  0.44492187136961936  0.027238248482537034  1.0000
  H   H29       1.0  0.020284845122858948  0.6855093662568947  0.10600482938706111  1.0000
  H   H30       1.0  0.9797151550317328  0.31449063393672777  0.8939951703038502  1.0000
  H   H31       1.0  0.37320184865033235  0.8938982363136831  0.32031465637505235  1.0000
  H   H32       1.0  0.6267981515042594  0.10610176387993937  0.679685343315859  1.0000
  H   H33       1.0  0.4110636796839047  0.6665221505427804  0.2765237826591797  1.0000
  H   H34       1.0  0.5889363209171691  0.3334778491245205  0.7234762181116738  1.0000
  H   H35       1.0  0.7076473179328121  0.618619964055124  0.26577362521353015  1.0000
  H   H36       1.0  0.2923526826682618  0.38138003561217687  0.7342263755573234  1.0000
  H   H37       1.0  0.9514001217158387  0.8197865713306485  0.3188763967198134  1.0000
  H   H38       1.0  0.04859987843875315  0.18021342886297395  0.6811236029710979  1.0000
  H   H39       1.0  0.8950811121264354  0.0543473330611647  0.3732378510835009  1.0000
  H   H40       1.0  0.1049188878988697  0.9456526661838606  0.6267621486102964  1.0000
  H   H41       1.0  0.5880154448182777  0.08256694529635115  0.37429040357363275  1.0000
  H   H42       1.0  0.4119845545576212  0.9174330543749148  0.625709597195181  1.0000
  C   C1        1.0  0.28711229873921884  0.6859570000229687  0.7834155929963708  1.0000
  C   C2        1.0  0.7128877014153729  0.31404300017065373  0.21658440669454052  1.0000
  C   C3        1.0  0.5000486096856291  0.6379025992496024  0.6727554814117813  1.0000
  C   C4        1.0  0.4999513904689627  0.3620974009440201  0.32724451827913  1.0000
  C   C5        1.0  0.9692267382174944  0.682597064523501  0.6271244870536946  1.0000
  C   C6        1.0  0.030773261937097555  0.31740293567012146  0.37287551263721674  1.0000
  C   C7        1.0  0.0769908902946261  0.739615001210584  0.8869317072711806  1.0000
  C   C8        1.0  0.9230091098599656  0.26038499898303846  0.11306829241973063  1.0000
  C   C9        1.0  0.24461066078432836  0.9805226852769093  0.9801881032282905  1.0000
  C   C10       1.0  0.7553893392409767  0.019477313968115913  0.01981189646550685  1.0000
  C   C11       1.0  0.9068316780657527  0.6543811307461674  0.9994846621766593  1.0000
  C   C12       1.0  0.09316832208883913  0.3456188694474551  0.000515337514251969  1.0000
  C   C13       1.0  0.5238839322778366  0.7453691307506634  0.2943123256971126  1.0000
  C   C14       1.0  0.4761160683232372  0.2546308689166375  0.7056876750737409  1.0000
  C   C15       1.0  0.6874199127221008  0.723030090290181  0.29219620455280837  1.0000
  C   C16       1.0  0.312580086207316  0.2769699099074068  0.7078037951360632  1.0000
  C   C17       1.0  0.821740231071272  0.8348703849466897  0.3200233796064829  1.0000
  C   C18       1.0  0.17825976895403295  0.16512961429833553  0.6799766200873144  1.0000
  C   C19       1.0  0.7903542270480286  0.9667515446997836  0.35049662656802766  1.0000
  C   C20       1.0  0.2096457731065633  0.0332484554938388  0.6495033731228836  1.0000
  C   C21       1.0  0.6250868541233382  0.9840439627763873  0.3512225415076016  1.0000
  C   C22       1.0  0.3749131448060786  0.015956037421200463  0.64877745818127  1.0000
  N   N1        1.0  0.3280812135452973  0.663364124756463  0.6703589506365066  1.0000
  N   N2        1.0  0.6719187864800076  0.33663587448856225  0.3296410490572907  1.0000
  N   N3        1.0  0.11878531778070392  0.7106087510323049  0.7664593760160011  1.0000
  N   N4        1.0  0.88121468282037  0.2893912486349958  0.23354062475485243  1.0000
  N   N5        1.0  0.13177745945151814  0.8686819909275048  0.9851198576084456  1.0000
  N   N6        1.0  0.8682225412788426  0.13131800968839322  0.014880143159521781  1.0000
  N   N7        1.0  0.9709571698783627  0.6376824725708965  0.8883243820948264  1.0000
  N   N8        1.0  0.029042830146942387  0.3623175266741288  0.11167561759897104  1.0000
  N   N9        1.0  0.49805760177671843  0.8738890458843855  0.32307950544466024  1.0000
  N   N10       1.0  0.5019423989536422  0.1261109547315124  0.6769204953233072  1.0000
  S   S1        1.0  0.4308172302207718  0.6851129665452936  0.9398929094905368  1.0000
  S   S2        1.0  0.56918276993382  0.31488703364832876  0.06010709020037432  1.0000
  Cl  Cl1       1.0  0.1594398289021949  0.653860400877844  0.3597932381149191  1.0000
  Cl  Cl2       1.0  0.84056017112311  0.34613959836718117  0.6402067615788782  1.0000
  Cl  Cl3       1.0  0.18943587117132757  0.013212763170372089  0.2998878591426271  1.0000
  Cl  Cl4       1.0  0.8105641289832642  0.9867872370232504  0.7001121405482842  1.0000
