data_image0
_chemical_formula_structural       H24C32N2O12Cl6
_chemical_formula_sum              "H24 C32 N2 O12 Cl6"
_cell_length_a       7.947283926482299
_cell_length_b       9.389165114531668
_cell_length_c       11.923918870182417
_cell_angle_alpha    71.61472892478139
_cell_angle_beta     87.57767146398108
_cell_angle_gamma    87.04250039985129

_space_group_name_H-M_alt    "P 1"
_space_group_IT_number       1

loop_
  _space_group_symop_operation_xyz
  'x, y, z'

loop_
  _atom_site_type_symbol
  _atom_site_label
  _atom_site_symmetry_multiplicity
  _atom_site_fract_x
  _atom_site_fract_y
  _atom_site_fract_z
  _atom_site_occupancy
  H   H1        1.0  0.8105754004987079  0.4238966519203124  0.26432981475233824  1.0000
  H   H2        1.0  0.18942459968014327  0.5761033483819812  0.7356701853783765  1.0000
  H   H3        1.0  0.5588874795573427  0.3025682062342037  0.0687149698018559  1.0000
  H   H4        1.0  0.4411125206215084  0.69743179406809  0.9312850303288588  1.0000
  H   H5        1.0  0.9373420870764638  0.978042945956785  0.2207196722312957  1.0000
  H   H6        1.0  0.06265791312918208  0.021957054696935735  0.779280327015344  1.0000
  H   H7        1.0  0.9232866472936314  0.6937500237463564  0.5850946077597686  1.0000
  H   H8        1.0  0.07671335288521984  0.3062499765559373  0.41490539237094604  1.0000
  H   H9        1.0  0.659359096661301  0.11230744003156658  0.48159336809234987  1.0000
  H   H10       1.0  0.3406409035175501  0.8876925602707271  0.5184066320383648  1.0000
  H   H11       1.0  0.7467786146085789  0.16289983763487575  0.2833372856684834  1.0000
  H   H12       1.0  0.2532213856684032  0.8371001619520013  0.7166627135791093  1.0000
  H   H13       1.0  0.11129382342292896  0.62083985306506  0.4455658284401777  1.0000
  H   H14       1.0  0.8887061767559222  0.3791601472372336  0.5544341716905371  1.0000
  H   H15       1.0  0.9962273450329163  0.6513210223702993  0.3149782766255072  1.0000
  H   H16       1.0  0.0037726551727296277  0.3486789782834213  0.6850217226211325  1.0000
  H   H17       1.0  0.1706259306219221  0.7612270144926807  0.31154048761707437  1.0000
  H   H18       1.0  0.8293740695837237  0.23877298616103973  0.6884595116295654  1.0000
  H   H19       1.0  0.800411184089027  0.8197862162809714  0.7321984304867786  1.0000
  H   H20       1.0  0.19958881618795504  0.18021378330590568  0.26780156876081396  1.0000
  H   H21       1.0  0.5996942597225348  0.8035477506047178  0.6807846189632415  1.0000
  H   H22       1.0  0.4003057405276524  0.19645224863073224  0.31921538116842596  1.0000
  H   H23       1.0  0.662497489847917  0.9827512020222295  0.6803658991943764  1.0000
  H   H24       1.0  0.3375025104022703  0.0172487972132204  0.31963410093729105  1.0000
  C   C1        1.0  0.4356928676075361  0.407762635767936  0.6134456057727441  1.0000
  C   C2        1.0  0.564307132571315  0.5922373645343576  0.3865543943579706  1.0000
  C   C3        1.0  0.5169958946196683  0.33752684618055834  0.5360728743143057  1.0000
  C   C4        1.0  0.48300410555918294  0.6624731541217354  0.463927125816409  1.0000
  C   C5        1.0  0.5890981373355509  0.4359404124072604  0.41691139777886965  1.0000
  C   C6        1.0  0.4109018628433002  0.5640595878950332  0.583088602351845  1.0000
  C   C7        1.0  0.1304977832795544  0.514590799726379  0.07768542219631544  1.0000
  C   C8        1.0  0.8695022169706329  0.4854091995090711  0.922314577935352  1.0000
  C   C9        1.0  0.16523594682918255  0.5458509272956047  0.9529256658782382  1.0000
  C   C10       1.0  0.8347640533496686  0.4541490730066889  0.04707433425247664  1.0000
  C   C11       1.0  0.9727028501638094  0.47313424013882516  0.12417852719530027  1.0000
  C   C12       1.0  0.027297150086377897  0.5268657590966249  0.8758214729363673  1.0000
  C   C13       1.0  0.33110051642252325  0.060563714962466916  0.013391209052213436  1.0000
  C   C14       1.0  0.6688994825695258  0.9394362842653945  0.9866087910849715  1.0000
  C   C15       1.0  0.35622062193489723  0.9296445673979575  0.9745630128668762  1.0000
  C   C16       1.0  0.64377937831529  0.07035543183749261  0.025436987264791364  1.0000
  C   C17       1.0  0.46635037302610777  0.1320191852376062  0.034729747516364734  1.0000
  C   C18       1.0  0.5336496271527434  0.8679808150646875  0.9652702526143501  1.0000
  C   C19       1.0  0.8961348259867639  0.9539842954617422  0.3128420634527586  1.0000
  C   C20       1.0  0.10386517426342348  0.04601570377370763  0.6871579366789089  1.0000
  C   C21       1.0  0.9482823035454468  0.8201496345596587  0.39934790969663114  1.0000
  C   C22       1.0  0.0517176966334044  0.17985036574263502  0.6006520904340835  1.0000
  C   C23       1.0  0.8870189578950761  0.7958603063905912  0.515113647169775  1.0000
  C   C24       1.0  0.11298104228377503  0.20413969391170245  0.48488635296093974  1.0000
  C   C25       1.0  0.7793794617389919  0.901378198964002  0.5445628628525145  1.0000
  C   C26       1.0  0.22062053843985924  0.09862180133829179  0.4554371372782002  1.0000
  C   C27       1.0  0.7907388362877771  0.05669599815731347  0.3449166466247315  1.0000
  C   C28       1.0  0.20926116391786886  0.9433040024964071  0.6550833526219083  1.0000
  C   C29       1.0  0.0633512269916594  0.7073523774614436  0.36703875365960625  1.0000
  C   C30       1.0  0.9366487731871918  0.29264762284085  0.6329612464711084  1.0000
  C   C31       1.0  0.7072065353192596  0.8772339259486618  0.6662769117422711  1.0000
  C   C32       1.0  0.29279346485959146  0.12276607435363178  0.33372308838844356  1.0000
  N   N1        1.0  0.7367352918707086  0.02954601303103684  0.4583782722433158  1.0000
  N   N2        1.0  0.2632647083081425  0.9704539872712571  0.5416217278873989  1.0000
  O   O1        1.0  0.5362911354195622  0.19734228211845203  0.5594577325274122  1.0000
  O   O2        1.0  0.463708864830625  0.8026577171169981  0.4405422676042553  1.0000
  O   O3        1.0  0.6679145453806066  0.3655177894905901  0.35467295506306595  1.0000
  O   O4        1.0  0.33208545479824464  0.6344822108117036  0.6453270450676487  1.0000
  O   O5        1.0  0.3009337971046147  0.5912216876068711  0.9015235068103248  1.0000
  O   O6        1.0  0.6990662031010312  0.4087783130468495  0.09847649243631501  1.0000
  O   O7        1.0  0.936511953176268  0.44538556528944295  0.23739254057377046  1.0000
  O   O8        1.0  0.06348804707391925  0.5546144339460072  0.7626074595578971  1.0000
  O   O9        1.0  0.24089887589280728  0.8654624581507241  0.9458173206200833  1.0000
  O   O10       1.0  0.7591011243128385  0.13453754250299646  0.054182678626556534  1.0000
  O   O11       1.0  0.44792379645084723  0.25557750872362434  0.06449584581139885  1.0000
  O   O12       1.0  0.5520762025412018  0.7444224905042369  0.9355041543257862  1.0000
  Cl  Cl1       1.0  0.3668498834927059  0.2959378619625079  0.7507149613342861  1.0000
  Cl  Cl2       1.0  0.6331501166861453  0.7040621383397858  0.24928503879642863  1.0000
  Cl  Cl3       1.0  0.28777864921885293  0.5343331106963864  0.16503654845624943  1.0000
  Cl  Cl4       1.0  0.7122213497286548  0.4656668899497453  0.8349634507959077  1.0000
  Cl  Cl5       1.0  0.12882935459221168  0.12918910768450975  0.02177628819890751  1.0000
  Cl  Cl6       1.0  0.8711706455866394  0.8708108926177839  0.9782237119318073  1.0000
