data_image0
_chemical_formula_structural       H52C50N4O4S4Cl4Br2
_chemical_formula_sum              "H52 C50 N4 O4 S4 Cl4 Br2"
_cell_length_a       9.101548395779684
_cell_length_b       16.255114607894438
_cell_length_c       8.715526453767398
_cell_angle_alpha    102.09265279067375
_cell_angle_beta     93.61317108166519
_cell_angle_gamma    77.34082329092138

_space_group_name_H-M_alt    "P 1"
_space_group_IT_number       1

loop_
  _space_group_symop_operation_xyz
  'x, y, z'

loop_
  _atom_site_type_symbol
  _atom_site_label
  _atom_site_symmetry_multiplicity
  _atom_site_fract_x
  _atom_site_fract_y
  _atom_site_fract_z
  _atom_site_occupancy
  H   H1        1.0  0.030567894623183288  0.21200952091975003  0.2781734813959441  1.0000
  H   H2        1.0  0.9694321054468372  0.7879904794091384  0.7218265193858976  1.0000
  H   H3        1.0  0.4514411010433166  0.5816566865281754  0.12507834751904745  1.0000
  H   H4        1.0  0.5485588990249697  0.4183433136712336  0.8749216520893545  1.0000
  H   H5        1.0  0.2843551699948672  0.5300921827959378  0.540269468899719  1.0000
  H   H6        1.0  0.715644830073419  0.46990781740347115  0.45973053070868297  1.0000
  H   H7        1.0  0.37233450498751464  0.6541232180550688  0.7070883808846239  1.0000
  H   H8        1.0  0.6276654953040072  0.34587678151395085  0.2929116187236401  1.0000
  H   H9        1.0  0.9393729802602742  0.9914802538916666  0.17810900374425315  1.0000
  H   H10       1.0  0.060627019808012154  0.00851974630774245  0.8218909958641488  1.0000
  H   H11       1.0  0.023575903247009835  0.08059221988149257  0.18153025737948159  1.0000
  H   H12       1.0  0.976424097044512  0.919407779687527  0.8184697422287824  1.0000
  H   H13       1.0  0.6854245932550079  0.08286277862202288  0.12803643672215442  1.0000
  H   H14       1.0  0.31457540681501256  0.9171372217068655  0.8719635640596872  1.0000
  H   H15       1.0  0.7726590678097671  0.17262703587909647  0.13639415993248752  1.0000
  H   H16       1.0  0.2273409322602533  0.8273729644497919  0.8636058408493542  1.0000
  H   H17       1.0  0.8176341934396238  0.08055388982835687  0.9847510988210647  1.0000
  H   H18       1.0  0.18236580552473947  0.9194461103823648  0.015248900767679832  1.0000
  H   H19       1.0  0.6825365807749488  0.8468359881350299  0.2626632197522169  1.0000
  H   H20       1.0  0.3174634184126501  0.1531640114453023  0.7373367798363897  1.0000
  H   H21       1.0  0.6375684602453536  0.639228017825722  0.0894784189179151  1.0000
  H   H22       1.0  0.36243153982466664  0.3607719825031662  0.9105215818639266  1.0000
  H   H23       1.0  0.7185155231687071  0.7306892889461578  0.13755374070728216  1.0000
  H   H24       1.0  0.28148447712454866  0.2693107107523411  0.8624462600744215  1.0000
  H   H25       1.0  0.9350177218912191  0.7069724624452378  0.9647932734361562  1.0000
  H   H26       1.0  0.06498227817706695  0.29302753775417123  0.03520672617224575  1.0000
  H   H27       1.0  0.5385672430567935  0.7466917907587097  0.9186283986350412  1.0000
  H   H28       1.0  0.4614327572364625  0.25330820893978917  0.08137160214666248  1.0000
  H   H29       1.0  0.3896619864503938  0.7314554507510447  0.026174104691738875  1.0000
  H   H30       1.0  0.6103380138428621  0.26854454894745416  0.9738258960899647  1.0000
  H   H31       1.0  0.46825118281311606  0.8249482427882996  0.08524803885316315  1.0000
  H   H32       1.0  0.5317488174784057  0.17505175678071996  0.9147519607551009  1.0000
  H   H33       1.0  0.7661037919530486  0.9856398141040529  0.7135391950654221  1.0000
  H   H34       1.0  0.23389620811697184  0.014360186224835382  0.2864608057164197  1.0000
  H   H35       1.0  0.45699874805077423  0.9350843304692118  0.671527497710357  1.0000
  H   H36       1.0  0.5430012511385588  0.06491566924059965  0.32847250305168924  1.0000
  H   H37       1.0  0.5782207502232867  0.9293581379578503  0.842808395611911  1.0000
  H   H38       1.0  0.42177925006823513  0.0706418616111694  0.15719160399635299  1.0000
  H   H39       1.0  0.5017892412750985  0.029174630770476412  0.7893701439732074  1.0000
  H   H40       1.0  0.49821075901642337  0.9708253687985431  0.21062985563505657  1.0000
  H   H41       1.0  0.09458698177356599  0.501019877162548  0.7260877387103127  1.0000
  H   H42       1.0  0.9054130185179557  0.49898012240647155  0.27391226089795134  1.0000
  H   H43       1.0  0.2710370004153094  0.4973442604920246  0.8290045374296756  1.0000
  H   H44       1.0  0.7289629996529766  0.5026557397073845  0.17099546217872647  1.0000
  H   H45       1.0  0.1088577675045604  0.48439195899488324  0.9216698014524316  1.0000
  H   H46       1.0  0.8911422325637258  0.5156080412045256  0.07833019815597037  1.0000
  H   H47       1.0  0.8179134320388299  0.9387912552408054  0.2857485882379981  1.0000
  H   H48       1.0  0.18208656715050317  0.06120874446900588  0.7142514125240481  1.0000
  H   H49       1.0  0.8645988924243124  0.2757418851661267  0.8385030328777291  1.0000
  H   H50       1.0  0.13540110786720944  0.7242581144028929  0.1614969667305349  1.0000
  H   H51       1.0  0.9922096079638519  0.37594678841667517  0.7397598074169794  1.0000
  H   H52       1.0  0.007790392327669855  0.6240532111523445  0.2602401921912846  1.0000
  C   C1        1.0  0.8265096872029438  0.04825318648080759  0.4637070604212063  1.0000
  C   C2        1.0  0.173490313088578  0.9517468130882121  0.5362929391870578  1.0000
  C   C3        1.0  0.014787320407482556  0.2988678265510674  0.5050851622371871  1.0000
  C   C4        1.0  0.9852126796608037  0.7011321736483416  0.49491483737121494  1.0000
  C   C5        1.0  0.9924249972201367  0.2253422037796998  0.39892806857228924  1.0000
  C   C6        1.0  0.007575001745960769  0.774657796560501  0.6010719321898951  1.0000
  C   C7        1.0  0.4935469573859833  0.6649828218230661  0.34711460211260053  1.0000
  C   C8        1.0  0.5064530426840371  0.33501717850582213  0.6528853986692411  1.0000
  C   C9        1.0  0.44122881020873045  0.5959811011388767  0.25212813182279886  1.0000
  C   C10       1.0  0.5587711898595559  0.4040188990605324  0.7478718677856032  1.0000
  C   C11       1.0  0.36667646179272406  0.5490005372433884  0.32605503059333407  1.0000
  C   C12       1.0  0.6333235371733734  0.45099946309681244  0.6739449701688501  1.0000
  C   C13       1.0  0.3434684751598121  0.568465915648617  0.48808995450970705  1.0000
  C   C14       1.0  0.6565315251317096  0.43153408392040254  0.5119100450985569  1.0000
  C   C15       1.0  0.3940293669558398  0.6378145475479245  0.5816126674822782  1.0000
  C   C16       1.0  0.6059706331124464  0.36218545265148444  0.41838733212612367  1.0000
  C   C17       1.0  0.46895253552361477  0.685395507547804  0.5102420904495439  1.0000
  C   C18       1.0  0.5310474645446716  0.31460449265160506  0.4897579091588579  1.0000
  C   C19       1.0  0.9200241464685301  0.0619353032270997  0.20685654316912735  1.0000
  C   C20       1.0  0.07997585359975624  0.9380646969723093  0.7931434564392746  1.0000
  C   C21       1.0  0.789993884507849  0.10216198038026594  0.10939613719546461  1.0000
  C   C22       1.0  0.21000611556043738  0.8978380198191431  0.8906038624129374  1.0000
  C   C23       1.0  0.7916114108556881  0.9682978919925294  0.4084031047078309  1.0000
  C   C24       1.0  0.20838858921259837  0.03170210820687974  0.5915968949005712  1.0000
  C   C25       1.0  0.6126983293007078  0.7087706109190923  0.136540779726135  1.0000
  C   C26       1.0  0.3873016709908141  0.29122938864992726  0.863459219882129  1.0000
  C   C27       1.0  0.4940129307732697  0.7556031133127082  0.036359670554931764  1.0000
  C   C28       1.0  0.5059870692950165  0.24439688688670078  0.9636403290534703  1.0000
  C   C29       1.0  0.680222095087699  0.954552270841831  0.6478799609692788  1.0000
  C   C30       1.0  0.3197779038766644  0.04544772936889061  0.35212003861946584  1.0000
  C   C31       1.0  0.547797614183759  0.9600783867443409  0.7402060262984081  1.0000
  C   C32       1.0  0.4522023858845274  0.039921613455068096  0.2597939733099939  1.0000
  C   C33       1.0  0.1488140810584448  0.518026168888521  0.8412534434512511  1.0000
  C   C34       1.0  0.8511859192330771  0.48197383068049854  0.15874655615701286  1.0000
  C   C35       1.0  0.10716386393319151  0.6139224813709087  0.8967719537802922  1.0000
  C   C36       1.0  0.8928361361350948  0.38607751882850044  0.10322804582810992  1.0000
  C   C37       1.0  0.7064450141559006  0.9245832134184037  0.4870242667312416  1.0000
  C   C38       1.0  0.2935549861356214  0.07541678615061587  0.5129757328770224  1.0000
  C   C39       1.0  0.6546566355497165  0.8543008235236809  0.3856991207473027  1.0000
  C   C40       1.0  0.3453433647418052  0.1456991760453387  0.6143008788609612  1.0000
  C   C41       1.0  0.5938477605613326  0.788745597386468  0.41652406496667244  1.0000
  C   C42       1.0  0.40615223950695384  0.21125440281294094  0.5834759346417295  1.0000
  C   C43       1.0  0.9223755282314697  0.16950379365948692  0.45613441015862716  1.0000
  C   C44       1.0  0.07762447206005205  0.8304962059095328  0.5438655894496367  1.0000
  C   C45       1.0  0.8751128379142706  0.18948478597185595  0.6128265421052108  1.0000
  C   C46       1.0  0.12488716215574966  0.8105152143570323  0.38717345867663083  1.0000
  C   C47       1.0  0.8994273319581105  0.26277135936166085  0.7169850578015333  1.0000
  C   C48       1.0  0.10057266833341134  0.7372286402073587  0.2830149418067306  1.0000
  C   C49       1.0  0.9706716886217676  0.3181155783879823  0.6618436758812237  1.0000
  C   C50       1.0  0.029328311446518776  0.6818844218114267  0.3381563237271783  1.0000
  N   N1        1.0  0.8937979322141382  0.09113492333673927  0.37587484277262084  1.0000
  N   N2        1.0  0.10620206785414807  0.9088650768626698  0.6241251568357812  1.0000
  N   N3        1.0  0.5671155936687241  0.7209061376203241  0.29936337767368704  1.0000
  N   N4        1.0  0.43288440640129633  0.27909386270856423  0.7006366231081547  1.0000
  O   O1        1.0  0.194176111183183  0.6623108967560869  0.8974611870263598  1.0000
  O   O2        1.0  0.8058238891083387  0.3376891028129328  0.1025388125819042  1.0000
  O   O3        1.0  0.9643139645094694  0.6414284784156641  0.9447190913386524  1.0000
  O   O4        1.0  0.035686035558817004  0.35857152178374485  0.055280908269749546  1.0000
  S   S1        1.0  0.7920582310525274  0.11048155298030804  0.6532310145002259  1.0000
  S   S2        1.0  0.20794176901749306  0.8895184473485802  0.3467689862816158  1.0000
  S   S3        1.0  0.537193679440622  0.7759862444090113  0.5971174650432372  1.0000
  S   S4        1.0  0.4628063206276642  0.22401375579039778  0.4028825345651649  1.0000
  Cl  Cl1       1.0  0.10195323796977668  0.37028927175151444  0.44158428627573065  1.0000
  Cl  Cl2       1.0  0.8980467623234794  0.6297107279469845  0.558415714505973  1.0000
  Cl  Cl3       1.0  0.29357763824025795  0.4656070531078381  0.21309929259666124  1.0000
  Cl  Cl4       1.0  0.7064223618280283  0.5343929470915708  0.7869007070117408  1.0000
  Br  Br1       1.0  0.835374157943761  0.8422251722587037  0.9982635550747837  1.0000
  Br  Br2       1.0  0.16462584102060246  0.1577748279520179  0.0017364445139608834  1.0000
