data_image0
_chemical_formula_structural       H60C60N2O4Br2
_chemical_formula_sum              "H60 C60 N2 O4 Br2"
_cell_length_a       10.35361688948459
_cell_length_b       9.826623596957887
_cell_length_c       12.623811989932788
_cell_angle_alpha    90.0
_cell_angle_beta     104.0172422789224
_cell_angle_gamma    90.0

_space_group_name_H-M_alt    "P 1"
_space_group_IT_number       1

loop_
  _space_group_symop_operation_xyz
  'x, y, z'

loop_
  _atom_site_type_symbol
  _atom_site_label
  _atom_site_symmetry_multiplicity
  _atom_site_fract_x
  _atom_site_fract_y
  _atom_site_fract_z
  _atom_site_occupancy
  H   H1        1.0  0.6031851858765355  0.4021170782631061  0.6428875211596169  1.0000
  H   H2        1.0  0.3968148136323049  0.9021170784178953  0.3571124792256523  1.0000
  H   H3        1.0  0.6720391395921107  0.9142836001962418  0.4107745161055366  1.0000
  H   H4        1.0  0.3279608599167297  0.4142836000414524  0.5892254842797325  1.0000
  H   H5        1.0  0.6369612802844614  0.35356184713084715  0.46079877787371787  1.0000
  H   H6        1.0  0.36303871898337253  0.853561846267993  0.5392012216950857  1.0000
  H   H7        1.0  0.6527100230677587  0.034205779501319034  0.13497120749145836  1.0000
  H   H8        1.0  0.34728997716595  0.5342057796561083  0.8650287920774422  1.0000
  H   H9        1.0  0.9081024417030016  0.4602498086321462  0.393862410168811  1.0000
  H   H10       1.0  0.0918975585307072  0.9602498087869354  0.6061375894000894  1.0000
  H   H11       1.0  0.45429659164028624  0.18441414002679501  0.09183990689397205  1.0000
  H   H12       1.0  0.5457034078685541  0.6844141401815843  0.9081600934912972  1.0000
  H   H13       1.0  0.700018742278395  0.8623571653465374  0.22608518185151583  1.0000
  H   H14       1.0  0.2999812572304455  0.36235716519174815  0.7739148185337534  1.0000
  H   H15       1.0  0.6006490897823479  0.6439194935642875  0.708162185716188  1.0000
  H   H16       1.0  0.39935090948548624  0.14391949340949817  0.2918378138526155  1.0000
  H   H17       1.0  0.8870461519454315  0.991483878859083  0.23980711059306276  1.0000
  H   H18       1.0  0.11295384732240248  0.4914838787042936  0.7601928889757408  1.0000
  H   H19       1.0  0.6357470952026214  0.8332979623372352  0.5890125116283145  1.0000
  H   H20       1.0  0.3642529052720937  0.33329796320008936  0.4109874887570518  1.0000
  H   H21       1.0  0.10839257716548475  0.31506524081765624  0.4323550811851554  1.0000
  H   H22       1.0  0.8916074221023492  0.8150652409724455  0.5676449183836481  1.0000
  H   H23       1.0  0.09832986163510886  0.07837983946372387  0.3599246224265012  1.0000
  H   H24       1.0  0.9016701385985998  0.5783798396185131  0.6400753771423993  1.0000
  H   H25       1.0  0.3684323659251307  0.39419143328123146  0.11779264512957759  1.0000
  H   H26       1.0  0.6315676335837098  0.8941914334360208  0.8822073552556916  1.0000
  H   H27       1.0  0.7212536353208232  0.6984049518417115  0.1036653943065387  1.0000
  H   H28       1.0  0.27874636515389195  0.19840495168692227  0.8963346060788276  1.0000
  H   H29       1.0  0.960330745716698  0.7620076393602898  0.21370370231217545  1.0000
  H   H30       1.0  0.03966925475801719  0.2620076392055005  0.7862962980731908  1.0000
  H   H31       1.0  0.9853920959929751  0.7216478701998247  0.41178345918863074  1.0000
  H   H32       1.0  0.014607904481740082  0.2216478700450354  0.5882165411967355  1.0000
  H   H33       1.0  0.1718514082642909  0.06855687951745275  0.09259133496780593  1.0000
  H   H34       1.0  0.8281485919694178  0.568556879672242  0.9074086646010946  1.0000
  H   H35       1.0  0.18606469120390803  0.9610683656310677  0.21012054431066166  1.0000
  H   H36       1.0  0.8139353090298006  0.4610683654762783  0.7898794552582388  1.0000
  H   H37       1.0  0.0322001967232406  0.9669254923879954  0.1074898247146444  1.0000
  H   H38       1.0  0.967799803510468  0.4669254922332061  0.8925101748542562  1.0000
  H   H39       1.0  0.35970318576468574  0.6157716829484796  0.2415192385531876  1.0000
  H   H40       1.0  0.6402968144690231  0.11577168279369024  0.758480761015713  1.0000
  H   H41       1.0  0.1972446670217773  0.6274263198509711  0.5247157777078214  1.0000
  H   H42       1.0  0.8027553334529378  0.12742631969618182  0.4752842226775449  1.0000
  H   H43       1.0  0.38573028791581915  0.5781213510364547  0.4385403776032192  1.0000
  H   H44       1.0  0.6142697113520149  0.0781213508816654  0.5614596219655842  1.0000
  H   H45       1.0  0.19028265524153093  0.6432671118039863  0.05589512180313666  1.0000
  H   H46       1.0  0.8097173449921777  0.14326711164919706  0.9441048777657638  1.0000
  H   H47       1.0  0.03189594482027957  0.7181880073420954  0.05471729628991646  1.0000
  H   H48       1.0  0.9681040544475544  0.21818800718730616  0.9452827032788871  1.0000
  H   H49       1.0  0.3687268666039474  0.7780334612966009  0.0398096853727247  1.0000
  H   H50       1.0  0.6312731336297612  0.2780334611418116  0.960190314196176  1.0000
  H   H51       1.0  0.36715310657797073  0.9583113962882726  0.060814595376546834  1.0000
  H   H52       1.0  0.6328468938967443  0.4583113961334832  0.9391854050088193  1.0000
  H   H53       1.0  0.3767235306765321  0.844042752646766  0.1737688784638209  1.0000
  H   H54       1.0  0.6232764688323084  0.3440427524919767  0.8262311219214484  1.0000
  H   H55       1.0  0.15829784951941117  0.7861648208843169  0.9010873840497237  1.0000
  H   H56       1.0  0.8417021507142975  0.28616482072952765  0.09891261551917688  1.0000
  H   H57       1.0  0.17190119466952639  0.966987466879436  0.9146084622734608  1.0000
  H   H58       1.0  0.8280988055641824  0.46698746672464675  0.08539153729543969  1.0000
  H   H59       1.0  0.021711527194606676  0.8809672472526577  0.9278543431902998  1.0000
  H   H60       1.0  0.9782884720732272  0.3809672470978684  0.07214565637850368  1.0000
  C   C1        1.0  0.6181378360988274  0.4865158732120396  0.5910626112916663  1.0000
  C   C2        1.0  0.38186216437588777  0.9865158723491854  0.4089373890936999  1.0000
  C   C3        1.0  0.6539457434920681  0.5646917189051441  0.4172977359868903  1.0000
  C   C4        1.0  0.3460542569826471  0.06469171976799838  0.582702264398476  1.0000
  C   C5        1.0  0.6712621815456111  0.8089908646201774  0.3834149630600904  1.0000
  C   C6        1.0  0.32873781796322926  0.3089908644653882  0.6165850373251789  1.0000
  C   C7        1.0  0.6692640600087166  0.5366357577421106  0.31026793501971867  1.0000
  C   C8        1.0  0.3307359404659984  0.03663575758732125  0.6897320653656476  1.0000
  C   C9        1.0  0.775490042065538  0.17583008476430245  0.24828041599601322  1.0000
  C   C10       1.0  0.22450995816817063  0.6758300849190918  0.7517195835728872  1.0000
  C   C11       1.0  0.6367312912636862  0.4583110124818695  0.48873441949744634  1.0000
  C   C12       1.0  0.3632687092110289  0.9583110126366587  0.51126558088792  1.0000
  C   C13       1.0  0.6556137059877314  0.13304315435514721  0.1748040960016809  1.0000
  C   C14       1.0  0.34438629328010256  0.6330431545099364  0.8251959035671226  1.0000
  C   C15       1.0  0.9033629931704578  0.35761593545598996  0.36051128047628056  1.0000
  C   C16       1.0  0.09663700706325093  0.8576159356107792  0.63948871909262  1.0000
  C   C17       1.0  0.5502411541117859  0.34823877054366686  0.1969952029004845  1.0000
  C   C18       1.0  0.4497588461219228  0.8482387696808125  0.8030047966684162  1.0000
  C   C19       1.0  0.545699700009482  0.2167571179442957  0.14947621010640158  1.0000
  C   C20       1.0  0.4543003004652332  0.7167571180990849  0.8505237902789645  1.0000
  C   C21       1.0  0.6863168891611612  0.780520441667719  0.2803557716381597  1.0000
  C   C22       1.0  0.3136831110725475  0.2805204415129297  0.7196442279307409  1.0000
  C   C23       1.0  0.7806327498371105  0.3104728974196685  0.2939483790627874  1.0000
  C   C24       1.0  0.21936725063760468  0.8104728975744578  0.7060516213225789  1.0000
  C   C25       1.0  0.616804898085776  0.622500737882513  0.6276407268327528  1.0000
  C   C26       1.0  0.383195102388939  0.1225007377277238  0.37235927355261345  1.0000
  C   C27       1.0  0.6536098701934364  0.702828785681593  0.45471830625852405  1.0000
  C   C28       1.0  0.34639012907439753  0.20282878552680372  0.5452816933102794  1.0000
  C   C29       1.0  0.6840282850525422  0.6443704297333874  0.24276820566633053  1.0000
  C   C30       1.0  0.3159717154221729  0.1443704295785982  0.7572317947190357  1.0000
  C   C31       1.0  0.8919126703123336  0.09354361250639234  0.27447939832658574  1.0000
  C   C32       1.0  0.1080873299213752  0.5935436126611817  0.7255206012423149  1.0000
  C   C33       1.0  0.6351528372941004  0.728318178607719  0.56079552228015  1.0000
  C   C34       1.0  0.36484716221473995  0.22831817845292962  0.43920447810511926  1.0000
  C   C35       1.0  0.6661387434796721  0.3953675422352345  0.268051566069623  1.0000
  C   C36       1.0  0.33386125699504315  0.8953675423900239  0.7319484343157432  1.0000
  C   C37       1.0  0.01499476876386587  0.2762008041948645  0.38208035087716236  1.0000
  C   C38       1.0  0.9850052307449747  0.7762008043496538  0.617919649508107  1.0000
  C   C39       1.0  0.009443467121669677  0.14209241620206772  0.34027922531897964  1.0000
  C   C40       1.0  0.9905565333530454  0.6420924163568571  0.6597207750663865  1.0000
  C   C41       1.0  0.05381899645908533  0.7225982566583934  0.2637723434885125  1.0000
  C   C42       1.0  0.9461810028087487  0.22259825650360404  0.7362276560802911  1.0000
  C   C43       1.0  0.0675088492975685  0.6987754270068667  0.3746274809844698  1.0000
  C   C44       1.0  0.9324911509361402  0.19877542685207739  0.6253725185844308  1.0000
  C   C45       1.0  0.14088134531719  0.9722701531946085  0.12287410615453719  1.0000
  C   C46       1.0  0.8591186549165186  0.4722701530398191  0.8771258934143633  1.0000
  C   C47       1.0  0.27833198919818053  0.6423645830857045  0.27855708418295655  1.0000
  C   C48       1.0  0.7216680110355282  0.14236458293091525  0.7214429153859441  1.0000
  C   C49       1.0  0.18675044288945505  0.6460453590555094  0.4379100997384182  1.0000
  C   C50       1.0  0.81324955758526  0.14604535890072012  0.5620899006469481  1.0000
  C   C51       1.0  0.29197117430827196  0.61833859718419  0.38977664914639243  1.0000
  C   C52       1.0  0.7080288249595621  0.11833859702940075  0.610223350422411  1.0000
  C   C53       1.0  0.13862535206496393  0.7191056134670306  0.09463363312206882  1.0000
  C   C54       1.0  0.8613746474438765  0.21910561331224124  0.9053663672632005  1.0000
  C   C55       1.0  0.15900030718500183  0.6952715999130255  0.2147065029095632  1.0000
  C   C56       1.0  0.8409996930487068  0.19527159975823621  0.7852934966593372  1.0000
  C   C57       1.0  0.33595428001700983  0.8596440330344121  0.0862728893310868  1.0000
  C   C58       1.0  0.6640457194918307  0.3596440328796228  0.9137271110541825  1.0000
  C   C59       1.0  0.13026798688039243  0.8750999349015619  0.9425008371633872  1.0000
  C   C60       1.0  0.8697320135943228  0.37509993474677267  0.05749916322197917  1.0000
  N   N1        1.0  0.18727244910729157  0.8578668641189967  0.06282186778683936  1.0000
  N   N2        1.0  0.8127275501605423  0.3578668639642075  0.9371781317819641  1.0000
  O   O1        1.0  0.6952648204074966  0.61565445143059  0.13974621312428837  1.0000
  O   O2        1.0  0.30473517886033746  0.11565445127580076  0.8602537864445151  1.0000
  O   O3        1.0  0.4439079850851306  0.43274059172434826  0.1748985195619139  1.0000
  O   O4        1.0  0.5560920141827035  0.9327405918791376  0.8251014800068897  1.0000
  Br  Br1       1.0  0.798323679384167  0.8482883156917285  0.010189745783683335  1.0000
  Br  Br2       1.0  0.20167631988366694  0.34828831655458264  0.9898102537851202  1.0000
