data_image0
_chemical_formula_structural       H46C50N6O8S4
_chemical_formula_sum              "H46 C50 N6 O8 S4"
_cell_length_a       7.681374034630413
_cell_length_b       7.755278753514708
_cell_length_c       20.227829159195004
_cell_angle_alpha    79.73283456287446
_cell_angle_beta     84.63406160820975
_cell_angle_gamma    70.46862300435396

_space_group_name_H-M_alt    "P 1"
_space_group_IT_number       1

loop_
  _space_group_symop_operation_xyz
  'x, y, z'

loop_
  _atom_site_type_symbol
  _atom_site_label
  _atom_site_symmetry_multiplicity
  _atom_site_fract_x
  _atom_site_fract_y
  _atom_site_fract_z
  _atom_site_occupancy
  H   H1        1.0  0.1638118187842964  0.5040144781235011  0.9279733375808038  1.0000
  H   H2        1.0  0.8361881815206569  0.4959855208820096  0.07202666245121309  1.0000
  H   H3        1.0  0.4794417724027519  0.028435046815657193  0.388634414016713  1.0000
  H   H4        1.0  0.5205582279022014  0.9715649521898535  0.6113655860153039  1.0000
  H   H5        1.0  0.6138396046819175  0.1419821682607408  0.28187498261757926  1.0000
  H   H6        1.0  0.3861603951660144  0.8580178321300063  0.718125017335273  1.0000
  H   H7        1.0  0.9447214721402081  0.9993270472894702  0.25143437279744707  1.0000
  H   H8        1.0  0.055278527707723936  0.0006729531012768764  0.7485656271554053  1.0000
  H   H9        1.0  0.14637391029302735  0.7394985844158757  0.33056481309602065  1.0000
  H   H10       1.0  0.8536260895549046  0.26050141597487125  0.6694351868568317  1.0000
  H   H11       1.0  0.01129053974698064  0.6239565216622602  0.4390952524196017  1.0000
  H   H12       1.0  0.9887094601009514  0.3760434787284867  0.5609047475332506  1.0000
  H   H13       1.0  0.7743057706002492  0.6533065886248102  0.5203925316694252  1.0000
  H   H14       1.0  0.22569422970470404  0.3466934103807005  0.47960746836259155  1.0000
  H   H15       1.0  0.25002519608487933  0.9599455773917446  0.4685789878360923  1.0000
  H   H16       1.0  0.7499748042200739  0.04005442161376608  0.5314210121959245  1.0000
  H   H17       1.0  0.2295750013109651  0.7377954341652103  0.4725934326318869  1.0000
  H   H18       1.0  0.7704250002984979  0.26220456484965754  0.527406567350921  1.0000
  H   H19       1.0  0.3660102349382438  0.8186319194174332  0.40754099007805866  1.0000
  H   H20       1.0  0.6339897653667095  0.1813680795880774  0.5924590099539581  1.0000
  H   H21       1.0  0.5989651680090285  0.5540552074486446  0.5965246278608324  1.0000
  H   H22       1.0  0.40103483229592474  0.44594479155686617  0.40347537217118457  1.0000
  H   H23       1.0  0.23405798412087186  0.2855635250822801  0.7726095305350086  1.0000
  H   H24       1.0  0.76594201572706  0.7144364753084669  0.2273904694178438  1.0000
  H   H25       1.0  0.996029101027447  0.4217209175243245  0.7777712559536484  1.0000
  H   H26       1.0  0.0039708988204847605  0.5782790828664226  0.22222874399920398  1.0000
  H   H27       1.0  0.44432670245215106  0.6222753067211272  0.8538202375070556  1.0000
  H   H28       1.0  0.5556732978528022  0.3777246922843835  0.1461797625249614  1.0000
  H   H29       1.0  0.8568701451138413  0.16085551214349147  0.9856799170801602  1.0000
  H   H30       1.0  0.14312985473409054  0.8391444882472554  0.014320082872692126  1.0000
  H   H31       1.0  0.9462822549376863  0.854952624619183  0.9465784302877037  1.0000
  H   H32       1.0  0.05371774491024573  0.145047375771564  0.053421569665148654  1.0000
  H   H33       1.0  0.8571319615018894  0.8350147880119796  0.8335803688518663  1.0000
  H   H34       1.0  0.14286803834604253  0.16498521237876734  0.16641963110098595  1.0000
  H   H35       1.0  0.6887596895933122  0.12523364796619005  0.7587104724611865  1.0000
  H   H36       1.0  0.3112403102546195  0.874766352424557  0.24128952749166582  1.0000
  H   H37       1.0  0.6094041352622636  0.425311514778569  0.7949702123154861  1.0000
  H   H38       1.0  0.39059586458566825  0.574688485612178  0.20502978763736626  1.0000
  H   H39       1.0  0.5992377295459592  0.805448823303152  0.01298249505573424  1.0000
  H   H40       1.0  0.40076227075899395  0.19455117570235864  0.9870175049762826  1.0000
  H   H41       1.0  0.254099107614287  0.9395152511854192  0.8636496100483276  1.0000
  H   H42       1.0  0.7459008922336451  0.060484749205327766  0.13635038990452475  1.0000
  H   H43       1.0  0.43183215893929194  0.04379162393725473  0.8544073770368015  1.0000
  H   H44       1.0  0.5681678409086399  0.9562083764534923  0.1455926229160508  1.0000
  H   H45       1.0  0.2951749409445491  0.041261418014231235  0.9300954168911865  1.0000
  H   H46       1.0  0.7048250589033825  0.9587385823765159  0.06990458306166582  1.0000
  C   C1        1.0  0.6239993538521369  0.9599382028551504  0.37610597866238443  1.0000
  C   C2        1.0  0.37600064645281633  0.04006179615036022  0.6238940213696326  1.0000
  C   C3        1.0  0.7000519279477746  0.025522148501542646  0.3157370071243603  1.0000
  C   C4        1.0  0.2999480723571787  0.9744778505039681  0.6842629929076566  1.0000
  C   C5        1.0  0.8870656395524638  0.9464175214030517  0.2988302487587907  1.0000
  C   C6        1.0  0.11293436029546813  0.05358247898769537  0.7011697511940616  1.0000
  C   C7        1.0  4.265519769180423e-05  0.8014652945797056  0.34332143755597677  1.0000
  C   C8        1.0  0.9999573446502402  0.19853470581104143  0.6566785623968756  1.0000
  C   C9        1.0  0.9247979159552412  0.7370456146692179  0.4039908865493194  1.0000
  C   C10       1.0  0.07520208389269073  0.26295438572152924  0.5960091134035329  1.0000
  C   C11       1.0  0.7346790255907809  0.8120825291438986  0.4213071027127358  1.0000
  C   C12       1.0  0.26532097425715084  0.18791747124684846  0.5786928972401165  1.0000
  C   C13       1.0  0.6668535951675015  0.7314222455456236  0.4843272173345498  1.0000
  C   C14       1.0  0.3331464046804304  0.2685777548451235  0.5156727826183024  1.0000
  C   C15       1.0  0.4910529686690164  0.7313540360808846  0.5044216985938746  1.0000
  C   C16       1.0  0.5089470316359367  0.2686459629246263  0.49557830143814224  1.0000
  C   C17       1.0  0.32633860740169834  0.8166953369972574  0.4610454447745036  1.0000
  C   C18       1.0  0.6736613924462335  0.1833046633934897  0.5389545551783487  1.0000
  C   C19       1.0  0.4716500978449729  0.6324380918333069  0.5700564116927546  1.0000
  C   C20       1.0  0.5283499020029591  0.3675619085574402  0.42994358826009776  1.0000
  C   C21       1.0  0.31609055337823655  0.6203600439243745  0.6063000635535085  1.0000
  C   C22       1.0  0.6839094464696953  0.3796399564663726  0.3936999363993438  1.0000
  C   C23       1.0  0.332370138552269  0.5004788862036961  0.6719072684510906  1.0000
  C   C24       1.0  0.6676298612956629  0.4995211141870509  0.3280927315017617  1.0000
  C   C25       1.0  0.008985562923673954  0.6516770146920512  0.6694068158909032  1.0000
  C   C26       1.0  0.991014437381279  0.34832298431345965  0.3305931841411137  1.0000
  C   C27       1.0  0.1372998196860842  0.4274361813488561  0.7703220026150804  1.0000
  C   C28       1.0  0.8627001801618477  0.5725638190418909  0.2296779973377719  1.0000
  C   C29       1.0  0.1825950869596721  0.5129513719271699  0.826014146610086  1.0000
  C   C30       1.0  0.8174049128882598  0.48704862846357705  0.17398585334276642  1.0000
  C   C31       1.0  0.82240394220356  0.15060063046149533  0.9361395751130499  1.0000
  C   C32       1.0  0.17759605810139323  0.8493993685440154  0.0638604249189668  1.0000
  C   C33       1.0  0.871408696764788  0.9804346088142462  0.9137483501555336  1.0000
  C   C34       1.0  0.12859130354016518  0.019565390191264596  0.08625164987648337  1.0000
  C   C35       1.0  0.8231830973971686  0.9688457865078258  0.8502214378758466  1.0000
  C   C36       1.0  0.17681690245076342  0.031154213882921156  0.14977856207700563  1.0000
  C   C37       1.0  0.7283649429554294  0.13046469700326377  0.8084454672782287  1.0000
  C   C38       1.0  0.27163505689250245  0.8695353033874833  0.19155453267462352  1.0000
  C   C39       1.0  0.6806204452417984  0.30264747662491936  0.8295681006807212  1.0000
  C   C40       1.0  0.31937955460613354  0.6973525237658276  0.17043189927213104  1.0000
  C   C41       1.0  0.7245137014352905  0.3126901373530729  0.8942588816120688  1.0000
  C   C42       1.0  0.2754862988696627  0.6873098616524379  0.10574111841994807  1.0000
  C   C43       1.0  0.7035333523322089  0.5340693344183164  0.9764410741368672  1.0000
  C   C44       1.0  0.29646664797274425  0.46593066458719434  0.023558925895149616  1.0000
  C   C45       1.0  0.598109313790388  0.7240701868830957  0.9749888547069302  1.0000
  C   C46       1.0  0.40189068605754386  0.2759298135076514  0.02501114524592206  1.0000
  C   C47       1.0  0.4985063019603666  0.7814920164743498  0.9172185956596898  1.0000
  C   C48       1.0  0.5014936983445866  0.21850798253116088  0.08278140437232712  1.0000
  C   C49       1.0  0.36192557975138945  0.9611801754901298  0.8899879134937333  1.0000
  C   C50       1.0  0.6380744200965425  0.03881982490061731  0.11001208645911902  1.0000
  N   N1        1.0  0.15693940713939802  0.5276932089131466  0.7040623623656834  1.0000
  N   N2        1.0  0.8430605927085338  0.4723067914776004  0.29593763758716896  1.0000
  N   N3        1.0  0.6641441631929339  0.48406795629695537  0.9181229342938432  1.0000
  N   N4        1.0  0.33585583665499796  0.5159320440937917  0.08187706565900917  1.0000
  N   N5        1.0  0.5442846693405234  0.6388449151702078  0.8814618058792106  1.0000
  N   N6        1.0  0.45571533096442973  0.36115508383530287  0.11853819415280627  1.0000
  O   O1        1.0  0.4752001158594484  0.3888898675166332  0.6964716899937325  1.0000
  O   O2        1.0  0.5247998839884834  0.6111101328741139  0.3035283099591197  1.0000
  O   O3        1.0  0.25894236412437355  0.6340521680212732  0.812668804449404  1.0000
  O   O4        1.0  0.7410576357235583  0.3659478323694738  0.1873311955034483  1.0000
  O   O5        1.0  0.13625215799274318  0.4420339124163125  0.8855750732739736  1.0000
  O   O6        1.0  0.8637478418551888  0.5579660879744345  0.11442492667887871  1.0000
  O   O7        1.0  0.8153357597620134  0.42178102263682027  0.01995791336713628  1.0000
  O   O8        1.0  0.1846642405429399  0.5782189763686904  0.9800420866648805  1.0000
  S   S1        1.0  0.08352212794859436  0.7420212779563067  0.5908352343098859  1.0000
  S   S2        1.0  0.9164778723563589  0.25797872104920394  0.4091647657221308  1.0000
  S   S3        1.0  0.7904250679188511  0.710222885514983  0.6950949752023395  1.0000
  S   S4        1.0  0.20957493238610198  0.28977711349052776  0.30490502482967746  1.0000
