data_image0
_chemical_formula_structural       H28C52N8O4F20
_chemical_formula_sum              "H28 C52 N8 O4 F20"
_cell_length_a       8.997462540088941
_cell_length_b       10.899700395723883
_cell_length_c       12.21425566127643
_cell_angle_alpha    102.6913782699687
_cell_angle_beta     92.39687251761661
_cell_angle_gamma    90.60453559163678

_space_group_name_H-M_alt    "P 1"
_space_group_IT_number       1

loop_
  _space_group_symop_operation_xyz
  'x, y, z'

loop_
  _atom_site_type_symbol
  _atom_site_label
  _atom_site_symmetry_multiplicity
  _atom_site_fract_x
  _atom_site_fract_y
  _atom_site_fract_z
  _atom_site_occupancy
  H   H1        1.0  0.28250074264007413  0.584659031203676  0.2092609100226085  1.0000
  H   H2        1.0  0.7174992564431897  0.4153409684033613  0.7907390898356828  1.0000
  H   H3        1.0  0.28524578125444305  0.43240992862653954  0.2886622358800021  1.0000
  H   H4        1.0  0.7147542189708775  0.5675900719149287  0.7113377641986838  1.0000
  H   H5        1.0  0.7969525282284514  0.4065846365813176  0.26030166880549854  1.0000
  H   H6        1.0  0.20304747195766443  0.593415363025351  0.7396983319123707  1.0000
  H   H7        1.0  0.7905716813687427  0.5580995262371985  0.1816472698954485  1.0000
  H   H8        1.0  0.209428318856578  0.4419004743042698  0.8183527301832373  1.0000
  H   H9        1.0  0.09818395140339459  0.763459787152973  0.28233064324836693  1.0000
  H   H10       1.0  0.9018160487920549  0.23654021244790702  0.7176693566499848  1.0000
  H   H11       1.0  0.8319631640887016  0.5983389814220065  0.9845305473214976  1.0000
  H   H12       1.0  0.1680368361067478  0.40166101817887345  0.015469452576854125  1.0000
  H   H13       1.0  0.9230198630888927  0.7645877426234079  0.8907100964129195  1.0000
  H   H14       1.0  0.07698013710655678  0.2354122569774721  0.1092899034854321  1.0000
  H   H15       1.0  0.10749180588060196  0.9266179852674071  0.9912079063375522  1.0000
  H   H16       1.0  0.8925081943447185  0.07338201527406098  0.008792093741133553  1.0000
  H   H17       1.0  0.19362173559125234  0.9269618220679304  0.18740461928962107  1.0000
  H   H18       1.0  0.8063782646340683  0.07303817847353787  0.8125953807890648  1.0000
  H   H19       1.0  0.11496965873274717  0.462004484521787  0.44924516306678774  1.0000
  H   H20       1.0  0.8850303414627024  0.5379955150790929  0.5507548368315639  1.0000
  H   H21       1.0  0.21778271943620356  0.30759851498745333  0.5526674393424115  1.0000
  H   H22       1.0  0.7822172807592459  0.6924014846134265  0.44733256055594023  1.0000
  H   H23       1.0  0.13268537815786952  0.08298373009925658  0.49892272938482923  1.0000
  H   H24       1.0  0.867314622067451  0.9170162704422117  0.5010772706938567  1.0000
  H   H25       1.0  0.9437271101774007  0.01513962379750567  0.341922923229193  1.0000
  H   H26       1.0  0.0562728900180489  0.9848603758033744  0.6580770766691586  1.0000
  H   H27       1.0  0.8415871871996546  0.17050703542311044  0.23789017712312355  1.0000
  H   H28       1.0  0.15841281191348028  0.8294929651245153  0.7621098229155019  1.0000
  C   C1        1.0  0.5825425680162855  0.35305091984145026  0.4188995068325825  1.0000
  C   C2        1.0  0.4174574321791641  0.6469490797594297  0.5811004930657693  1.0000
  C   C3        1.0  0.6423772146812076  0.2568707389948756  0.46439360508106153  1.0000
  C   C4        1.0  0.3576227855142419  0.7431292606060043  0.53560639481729  1.0000
  C   C5        1.0  0.585439041734975  0.1345726885509527  0.42854498590885304  1.0000
  C   C6        1.0  0.4145609584903456  0.8654273119905155  0.5714550141698328  1.0000
  C   C7        1.0  0.46587063095816345  0.11047316230232347  0.350041972460304  1.0000
  C   C8        1.0  0.5341293692372862  0.8895268372985564  0.6499580274380476  1.0000
  C   C9        1.0  0.4062815609497532  0.20791617738179893  0.3065905905119428  1.0000
  C   C10       1.0  0.5937184392456963  0.7920838222190809  0.6934094093864088  1.0000
  C   C11       1.0  0.46386512852215006  0.33098027298983784  0.33862451322384235  1.0000
  C   C12       1.0  0.5361348716732994  0.6690197266110421  0.6613754866745093  1.0000
  C   C13       1.0  0.48155100568568326  0.5037841859277691  0.2434708913588045  1.0000
  C   C14       1.0  0.5184489945097662  0.49621581367311085  0.7565291085395471  1.0000
  C   C15       1.0  0.4592805277684321  0.6793732062364726  0.1524018535741555  1.0000
  C   C16       1.0  0.5407194724270172  0.32062679336440747  0.8475981463241963  1.0000
  C   C17       1.0  0.40293354768915923  0.6894198301173045  0.046074073040343964  1.0000
  C   C18       1.0  0.5970664514239756  0.31058017043032127  0.9539259269982814  1.0000
  C   C19       1.0  0.4598769980353734  0.7777665692969803  0.9912392734422097  1.0000
  C   C20       1.0  0.5401230010478905  0.22223343031005724  0.00876072641608149  1.0000
  C   C21       1.0  0.5784431707481827  0.8564527604283665  0.0415542720373516  1.0000
  C   C22       1.0  0.42155682833508107  0.14354723917867096  0.9584457278209397  1.0000
  C   C23       1.0  0.6346391184643302  0.8496982468936443  0.147926992654772  1.0000
  C   C24       1.0  0.36536088173111925  0.15030175270723564  0.8520730072435797  1.0000
  C   C25       1.0  0.5743436111638903  0.7629864057599568  0.20288915531885984  1.0000
  C   C26       1.0  0.42565638791937355  0.23701359384708054  0.7971108445394314  1.0000
  C   C27       1.0  0.06249330288668151  0.7630599516193219  0.19597050345698366  1.0000
  C   C28       1.0  0.9375066973386392  0.23694004892214637  0.8040294966217023  1.0000
  C   C29       1.0  0.9604852830104476  0.6706544466467581  0.1385857339609519  1.0000
  C   C30       1.0  0.03951471718500196  0.3293455529541218  0.8614142659373998  1.0000
  C   C31       1.0  0.9101205207011169  0.671574186542304  0.028632761853650268  1.0000
  C   C32       1.0  0.0898794795242035  0.3284258139991643  0.9713672382250356  1.0000
  C   C33       1.0  0.9623563517772808  0.7640559914300221  0.9761779352404005  1.0000
  C   C34       1.0  0.03764364733585405  0.23594400911760366  0.02382206479822493  1.0000
  C   C35       1.0  0.06573297079018904  0.8551240288160328  0.03257238402934596  1.0000
  C   C36       1.0  0.9342670293959268  0.14487597079063586  0.9674276166885233  1.0000
  C   C37       1.0  0.11514078743841367  0.8546052117882003  0.14249018364844646  1.0000
  C   C38       1.0  0.8848592116747214  0.1453947887594255  0.8575098163901789  1.0000
  C   C39       1.0  0.9725356795917999  0.3256829778885896  0.3369867011651258  1.0000
  C   C40       1.0  0.027464320603649756  0.6743170217122904  0.6630132987332259  1.0000
  C   C41       1.0  0.07897809786717534  0.36394000034593627  0.4254327617473429  1.0000
  C   C42       1.0  0.9210219023189405  0.6360599992607324  0.5745672389705264  1.0000
  C   C43       1.0  0.13597806224967357  0.2767332863662296  0.48343806416735596  1.0000
  C   C44       1.0  0.8640219379756471  0.7232667141752386  0.5165619359113297  1.0000
  C   C45       1.0  0.08746741288620821  0.15106627390650487  0.453918712184683  1.0000
  C   C46       1.0  0.9125325873391125  0.8489337266349634  0.5460812878940028  1.0000
  C   C47       1.0  0.9812441852679844  0.11308350272068546  0.36592331204047207  1.0000
  C   C48       1.0  0.01875581381527938  0.886916496886352  0.6340766878178191  1.0000
  C   C49       1.0  0.9237391742534004  0.19969259891508304  0.30724898087542024  1.0000
  C   C50       1.0  0.07626082594204904  0.8003074006857969  0.6927510190229315  1.0000
  C   C51       1.0  0.9873290825458052  0.5022578217219771  0.242055433792636  1.0000
  C   C52       1.0  0.012670917649644543  0.49774217787890285  0.7579445661057157  1.0000
  N   N1        1.0  0.39713037020003017  0.5923914921959279  0.20654265240754735  1.0000
  N   N2        1.0  0.6028696300252905  0.40760850834554035  0.7934573476711385  1.0000
  N   N3        1.0  0.4000314547241238  0.42593865270225856  0.29348353870858745  1.0000
  N   N4        1.0  0.5999685455011968  0.5740613478392098  0.7065164613700984  1.0000
  N   N5        1.0  0.909055438085262  0.41264146654770667  0.27937525260889906  1.0000
  N   N6        1.0  0.09094456099800191  0.5873585330593307  0.7206247472493922  1.0000
  N   N7        1.0  0.9025512491387068  0.5781585399187803  0.19090772024062597  1.0000
  N   N8        1.0  0.09744874997442818  0.4218414606288455  0.8090922797979995  1.0000
  O   O1        1.0  0.6178716636779715  0.4941589144322376  0.23125912006168253  1.0000
  O   O2        1.0  0.3821283354052923  0.5058410851748  0.7687408797966087  1.0000
  O   O3        1.0  0.1267536131329832  0.5117786699493813  0.2518660709934584  1.0000
  O   O4        1.0  0.8732463859502807  0.48822132965765613  0.7481339288648329  1.0000
  F   F1        1.0  0.7433495040230279  0.9309801319868094  0.1987786037437574  1.0000
  F   F2        1.0  0.2566504962022927  0.06901986855465883  0.8012213963349284  1.0000
  F   F3        1.0  0.6374708487511601  0.940675379462401  0.9889959411332045  1.0000
  F   F4        1.0  0.3625291514442894  0.05932462013847893  0.011004058765147174  1.0000
  F   F5        1.0  0.6247794975673537  0.7638516444262717  0.3086985080487409  1.0000
  F   F6        1.0  0.37522050262809564  0.23614835517460797  0.6913014918496108  1.0000
  F   F7        1.0  0.40136405029945643  0.7882196040013879  0.8902542983827864  1.0000
  F   F8        1.0  0.598635949895993  0.2117803955994921  0.10974570151556534  1.0000
  F   F9        1.0  0.2901414199381276  0.6117187296053356  0.9964853180418253  1.0000
  F   F10       1.0  0.7098585791451362  0.388281270001702  0.003514681816465941  1.0000
  F   F11       1.0  0.6407112345128937  0.47038773057705796  0.45526453591093274  1.0000
  F   F12       1.0  0.3592887656825558  0.5296122690238219  0.5447354639874189  1.0000
  F   F13       1.0  0.7540573445901033  0.28205054939812396  0.5433569389592741  1.0000
  F   F14       1.0  0.2459426556352173  0.7179494511433444  0.4566430611194118  1.0000
  F   F15       1.0  0.6468325696643659  0.0403629341121238  0.4687744496957497  1.0000
  F   F16       1.0  0.3531674305609546  0.9596370664293445  0.5312255503829362  1.0000
  F   F17       1.0  0.4102726058541475  0.9922799891766728  0.3142395220868118  1.0000
  F   F18       1.0  0.589727394341302  0.007720010424207053  0.6857604778115398  1.0000
  F   F19       1.0  0.29223764006471425  0.18229152271832388  0.22910565965935453  1.0000
  F   F20       1.0  0.7077623601606063  0.8177084778231445  0.7708943404193312  1.0000
