data_image0
_chemical_formula_structural       H108C120N4O32
_chemical_formula_sum              "H108 C120 N4 O32"
_cell_length_a       13.11755339382107
_cell_length_b       11.491182198076023
_cell_length_c       16.94906152690539
_cell_angle_alpha    90.00009989549646
_cell_angle_beta     92.0186333146719
_cell_angle_gamma    89.99998936112311

_space_group_name_H-M_alt    "P 1"
_space_group_IT_number       1

loop_
  _space_group_symop_operation_xyz
  'x, y, z'

loop_
  _atom_site_type_symbol
  _atom_site_label
  _atom_site_symmetry_multiplicity
  _atom_site_fract_x
  _atom_site_fract_y
  _atom_site_fract_z
  _atom_site_occupancy
  H   H1        1.0  0.640004665854893  0.5162337086002899  0.2879304080984425  1.0000
  H   H2        1.0  0.8599952345455077  0.016234166155593328  0.21207016229687117  1.0000
  H   H3        1.0  0.3599953341899044  0.4837662914225043  0.7120695920970285  1.0000
  H   H4        1.0  0.1400047654995274  0.9837658338672002  0.7879298373086031  1.0000
  H   H5        1.0  0.7042068848232559  0.5281365478907366  0.8807267774004004  1.0000
  H   H6        1.0  0.7957912760171513  0.028137880824652493  0.6192728356300957  1.0000
  H   H7        1.0  0.2957931152217791  0.4718634521320568  0.11927322220507397  1.0000
  H   H8        1.0  0.20420872402764623  0.9718621191981418  0.38072716456537525  1.0000
  H   H9        1.0  0.7669980859614892  0.6587971103947226  0.852357870799637  1.0000
  H   H10       1.0  0.7329969665953324  0.15879553330223675  0.6476434048987173  1.0000
  H   H11       1.0  0.23300191408330825  0.34120288962807166  0.14764212939583402  1.0000
  H   H12       1.0  0.2670030334494651  0.8412044667205574  0.35235659529675367  1.0000
  H   H13       1.0  0.6572067614562266  0.6672367532551237  0.9119372257625331  1.0000
  H   H14       1.0  0.8427874944853391  0.16724045520263828  0.5880640905615674  1.0000
  H   H15       1.0  0.342793238588571  0.33276324676767055  0.08806277443293783  1.0000
  H   H16       1.0  0.1572125055594585  0.8327595448201559  0.41193590963390353  1.0000
  H   H17       1.0  0.3646170601864112  0.9294093028995297  0.1549673301563529  1.0000
  H   H18       1.0  0.13538405481361113  0.4294105796003254  0.3450328464560935  1.0000
  H   H19       1.0  0.6353829398583862  0.0705906971232647  0.8450326700391181  1.0000
  H   H20       1.0  0.8646159452311865  0.5705894204224687  0.6549671537393775  1.0000
  H   H21       1.0  0.2118670157497058  0.023383529676065006  0.21183279778174122  1.0000
  H   H22       1.0  0.28813368667203587  0.5233847571596143  0.28816654375628054  1.0000
  H   H23       1.0  0.7881329842950917  0.9766164703467292  0.7881672024137297  1.0000
  H   H24       1.0  0.7118663133727616  0.4766152428631799  0.7118334564391904  1.0000
  H   H25       1.0  0.22744165311293113  0.22096192313597027  0.27340896437456924  1.0000
  H   H26       1.0  0.2725583172728878  0.7209619266105759  0.22658966060973626  1.0000
  H   H27       1.0  0.7725583469318663  0.7790380768868239  0.7265910358209018  1.0000
  H   H28       1.0  0.7274416827721473  0.2790380734122177  0.7734103389957382  1.0000
  H   H29       1.0  0.9867676205527901  0.16738062310008353  0.2734262769637858  1.0000
  H   H30       1.0  0.5132329072067169  0.6673812628473853  0.22657355441258537  1.0000
  H   H31       1.0  0.013232379492007394  0.8326193769227107  0.7265737232316851  1.0000
  H   H32       1.0  0.48676709283808056  0.332618737175409  0.7734264457828856  1.0000
  H   H33       1.0  0.9888656393089826  0.3587203333903876  0.5375563433571561  1.0000
  H   H34       1.0  0.511134425984409  0.8587208403164285  0.9624435847850571  1.0000
  H   H35       1.0  0.011134360735814771  0.6412796666324067  0.46244365683831484  1.0000
  H   H36       1.0  0.4888655740603886  0.14127915970636581  0.0375564154104138  1.0000
  H   H37       1.0  0.559750794537516  0.4330640560957413  0.11773380426562047  1.0000
  H   H38       1.0  0.940248728309777  0.9330654667736749  0.3822679091351445  1.0000
  H   H39       1.0  0.4402492055075191  0.5669359439270523  0.8822661953398538  1.0000
  H   H40       1.0  0.05975127173502039  0.06693453324911938  0.6177320910603264  1.0000
  H   H41       1.0  0.6092808376938005  0.5148352344057017  0.9910726988035258  1.0000
  H   H42       1.0  0.8907163597909501  0.014836914865817868  0.5089286384080528  1.0000
  H   H43       1.0  0.3907191623512346  0.48516476561709193  0.008927300801948635  1.0000
  H   H44       1.0  0.10928364025408507  0.9851630851569757  0.4910713611974215  1.0000
  H   H45       1.0  0.1307178589289346  0.13224100450958853  0.36974498883646956  1.0000
  H   H46       1.0  0.36928220346953544  0.6322420985121934  0.13025526558109718  1.0000
  H   H47       1.0  0.8692821411161005  0.867758995513205  0.6302550107690047  1.0000
  H   H48       1.0  0.6307177965752621  0.36775790151060084  0.8697447346143738  1.0000
  H   H49       1.0  0.5313329694549976  0.03403760443239496  0.15914369267297176  1.0000
  H   H50       1.0  0.9686679632106028  0.53403825764349  0.3408570110331656  1.0000
  H   H51       1.0  0.46866703059003734  0.9659623955903984  0.8408563069325025  1.0000
  H   H52       1.0  0.03133203607138407  0.46596174237930427  0.6591429891413261  1.0000
  H   H53       1.0  0.9039710857534563  0.6065535812507431  0.09479297402902066  1.0000
  H   H54       1.0  0.5960265272105664  0.1065528617737185  0.40520558218015584  1.0000
  H   H55       1.0  0.09602891429157871  0.3934464187720503  0.9052070255764536  1.0000
  H   H56       1.0  0.40397347283446866  0.8934471382490752  0.5947944174253185  1.0000
  H   H57       1.0  0.8513954168596658  0.5244594143401489  0.22257842548977802  1.0000
  H   H58       1.0  0.6486049598656354  0.024459815613313854  0.2774208620957719  1.0000
  H   H59       1.0  0.14860458318513178  0.47554058568264534  0.777421574705693  1.0000
  H   H60       1.0  0.35139504017939976  0.9755401844094795  0.7225791375097025  1.0000
  H   H61       1.0  0.13087646853374546  0.22643863729058536  0.5023908812278508  1.0000
  H   H62       1.0  0.36912340606509214  0.7264392028214658  0.9976088901601353  1.0000
  H   H63       1.0  0.869123531511052  0.773561362732209  0.4976091189676203  1.0000
  H   H64       1.0  0.6308765939797054  0.27356079720132837  0.0023911100353357344  1.0000
  H   H65       1.0  0.9024041545597234  0.22664854849566948  0.1565799098034937  1.0000
  H   H66       1.0  0.5975961694311788  0.7266481971838249  0.3434201480038403  1.0000
  H   H67       1.0  0.09759584548531151  0.773351451527124  0.8434200898019807  1.0000
  H   H68       1.0  0.40240383061361873  0.2733518028389692  0.6565798521916307  1.0000
  H   H69       1.0  0.717490531373036  0.23537971477293862  0.20062470712402225  1.0000
  H   H70       1.0  0.7825100478629337  0.7353802654582807  0.29937547486170507  1.0000
  H   H71       1.0  0.28250946867176163  0.7646202852498556  0.7993752930714486  1.0000
  H   H72       1.0  0.2174899521818638  0.2646197345645135  0.700624525333766  1.0000
  H   H73       1.0  0.5278167189181858  0.4062150429362006  0.4849139633848768  1.0000
  H   H74       1.0  0.9721828702325458  0.9062150746512235  0.015086160579572825  1.0000
  H   H75       1.0  0.4721832811266116  0.5937849562163611  0.5150860368105936  1.0000
  H   H76       1.0  0.027817129049441044  0.09378492537157071  0.9849138395949188  1.0000
  H   H77       1.0  0.6175545963970319  0.2905888752873908  0.4757253934381248  1.0000
  H   H78       1.0  0.8824450100150212  0.790588973021109  0.024274620846557193  1.0000
  H   H79       1.0  0.38244540364800317  0.7094111247354026  0.5242746061673496  1.0000
  H   H80       1.0  0.11755499002977628  0.2094110270016852  0.9757253793489137  1.0000
  H   H81       1.0  0.5414140303684716  0.1838581270394877  0.5863624286314619  1.0000
  H   H82       1.0  0.9585854274935248  0.6838579591408832  0.913637253342702  1.0000
  H   H83       1.0  0.45858596967656345  0.8161418729833058  0.4136375709740123  1.0000
  H   H84       1.0  0.04141457255127275  0.31614204088191106  0.08636274685276903  1.0000
  H   H85       1.0  0.5765389077180957  0.3285788555679523  0.6183242703251434  1.0000
  H   H86       1.0  0.9234607246668581  0.8285788539959668  0.8816758313718637  1.0000
  H   H87       1.0  0.4234610923267018  0.671421144454842  0.38167572987032755  1.0000
  H   H88       1.0  0.07653927537793935  0.1714211460268274  0.11832416882360725  1.0000
  H   H89       1.0  0.2690176609833103  0.2679218946060269  0.5587048876258147  1.0000
  H   H90       1.0  0.23098208593332822  0.7679216233248237  0.9412950321679316  1.0000
  H   H91       1.0  0.7309823390614874  0.7320781054167672  0.44129511256965626  1.0000
  H   H92       1.0  0.7690179141117068  0.2320783766979697  0.058704967437542714  1.0000
  H   H93       1.0  0.3538631501545337  0.14670704828042896  0.5528747750424657  1.0000
  H   H94       1.0  0.1461367237460957  0.6467068412638001  0.9471250556432862  1.0000
  H   H95       1.0  0.6461368498902638  0.8532929517423652  0.4471252251530052  1.0000
  H   H96       1.0  0.8538632762987018  0.3532931587589942  0.052874944552184944  1.0000
  H   H97       1.0  0.3191336820091948  0.2256635787848888  0.4174102270321162  1.0000
  H   H98       1.0  0.18086602418842776  0.7256636437526336  0.08258956683548352  1.0000
  H   H99       1.0  0.6808663180356026  0.7743364212379054  0.5825897731633548  1.0000
  H   H100      1.0  0.8191339758563697  0.2743363562701605  0.9174104333599875  1.0000
  H   H101      1.0  0.35300893853576415  0.36885447027100277  0.45021253738194356  1.0000
  H   H102      1.0  0.14699059380737173  0.8688544511448718  0.04978754326990806  1.0000
  H   H103      1.0  0.6469910615090334  0.6311455297517914  0.5497874628135274  1.0000
  H   H104      1.0  0.8530094062374258  0.1311455488779223  0.9502124569255629  1.0000
  H   H105      1.0  0.40249103109353856  0.389143078592397  0.5978902779219656  1.0000
  H   H106      1.0  0.09750840043007876  0.8891428523104551  0.9021097110555648  1.0000
  H   H107      1.0  0.5975089689514965  0.6108569214303965  0.4021097216835088  1.0000
  H   H108      1.0  0.9024915996147187  0.11085714771233911  0.09789028913990615  1.0000
  C   C1        1.0  0.38669297343426445  0.2355353929514922  0.24973356462181084  1.0000
  C   C2        1.0  0.11330700578711114  0.7355356319274651  0.2502654443021794  1.0000
  C   C3        1.0  0.6133070266105332  0.7644646070713019  0.7502664355736602  1.0000
  C   C4        1.0  0.8866929942579239  0.2644643680953286  0.7497345553032949  1.0000
  C   C5        1.0  0.47307515883277396  0.18504495292377868  0.21741660430127918  1.0000
  C   C6        1.0  0.02692518160851841  0.6850454165278141  0.28258266907657814  1.0000
  C   C7        1.0  0.5269248412120235  0.8149550470990155  0.7825833958941918  1.0000
  C   C8        1.0  0.9730748184362792  0.31495458349498007  0.7174173311188928  1.0000
  C   C9        1.0  0.5677256381301454  0.25045028251579166  0.22006333269613335  1.0000
  C   C10       1.0  0.9322744705816396  0.7504503911634567  0.2799359639287272  1.0000
  C   C11       1.0  0.4322743619146521  0.7495497166367702  0.7799366674993371  1.0000
  C   C12       1.0  0.06772552946339545  0.24954960885933672  0.720064035676747  1.0000
  C   C13       1.0  0.5717949902678721  0.3586410413476305  0.25654475276004235  1.0000
  C   C14       1.0  0.9282050972818122  0.8586416457005902  0.24345511484137053  1.0000
  C   C15       1.0  0.4282050097769253  0.6413589586751638  0.7434552474354286  1.0000
  C   C16       1.0  0.07179490276298535  0.14135835432220403  0.7565448853541006  1.0000
  C   C17       1.0  0.48094826663105106  0.408302536302329  0.2872267790795306  1.0000
  C   C18       1.0  0.019051463644478694  0.9083028158166315  0.21277241221172558  1.0000
  C   C19       1.0  0.5190517334137464  0.5916974637204653  0.7127732211159404  1.0000
  C   C20       1.0  0.9809485356375083  0.09169718420616264  0.7872275879627663  1.0000
  C   C21       1.0  0.6662258591314748  0.4351647016762079  0.2608215893235664  1.0000
  C   C22       1.0  0.8337740697685883  0.9351652854405004  0.23917894062200015  1.0000
  C   C23       1.0  0.3337741409133228  0.5648352983465863  0.7391784108719045  1.0000
  C   C24       1.0  0.16622593027620924  0.06483471458229385  0.7608210595734708  1.0000
  C   C25       1.0  0.7017762539558909  0.47222775299214514  0.179698338855105  1.0000
  C   C26       1.0  0.7982236416655218  0.9722286560468272  0.3203021793138298  1.0000
  C   C27       1.0  0.29822374608890645  0.5277722470306491  0.820301661340366  1.0000
  C   C28       1.0  0.201776357616465  0.027771343975966895  0.679697820860662  1.0000
  C   C29       1.0  0.6357124869053614  0.4704809388967376  0.1133638179305252  1.0000
  C   C30       1.0  0.8642864436887807  0.9704831149347798  0.3866373548480281  1.0000
  C   C31       1.0  0.36428751313943597  0.5295190611260566  0.8866361822649458  1.0000
  C   C32       1.0  0.13571355635625437  0.029516885088013742  0.6133626447574462  1.0000
  C   C33       1.0  0.66358857165322  0.517007088675216  0.0410571356566979  1.0000
  C   C34       1.0  0.8364087623197994  0.017009681547122645  0.45894396687826927  1.0000
  C   C35       1.0  0.33641142839157745  0.4829929113475782  0.9589428645387731  1.0000
  C   C36       1.0  0.16359123772523554  0.9829903184756709  0.541056032727205  1.0000
  C   C37       1.0  0.7602668022688844  0.5662784266796187  0.03455565072743082  1.0000
  C   C38       1.0  0.7397304734422698  0.06627989483646131  0.46544524320794267  1.0000
  C   C39       1.0  0.2397331977759131  0.43372157247294296  0.9654443494680398  1.0000
  C   C40       1.0  0.260269525839717  0.933720105186333  0.5345547569665491  1.0000
  C   C41       1.0  0.7261506691952001  0.6165584599961329  0.8996114470307136  1.0000
  C   C42       1.0  0.7738454648031379  0.116559298238498  0.6003893126545061  1.0000
  C   C43       1.0  0.2738493308498349  0.3834415400266607  0.10038855257476073  1.0000
  C   C44       1.0  0.2261545352416597  0.8834407017842962  0.39961068754096474  1.0000
  C   C45       1.0  0.8284380764912604  0.5682241279782303  0.10031468600919298  1.0000
  C   C46       1.0  0.6715601992812114  0.06822474885407313  0.39968563416692937  1.0000
  C   C47       1.0  0.1715619235535371  0.4317758720445638  0.899685314186278  1.0000
  C   C48       1.0  0.32843980076382373  0.9317752511687204  0.600314365438545  1.0000
  C   C49       1.0  0.7986686019875546  0.5216303251172288  0.17152712779039814  1.0000
  C   C50       1.0  0.7013306714713726  0.021630256417166416  0.32847354564070813  1.0000
  C   C51       1.0  0.20133139805724284  0.4783696749055654  0.8284728724050727  1.0000
  C   C52       1.0  0.2986693285734248  0.9783697436056279  0.6715264545547628  1.0000
  C   C53       1.0  0.7506565209644716  0.3919316311397791  0.3170784115094784  1.0000
  C   C54       1.0  0.7493435213936912  0.89193179119028  0.18292180471976793  1.0000
  C   C55       1.0  0.24934347908056356  0.6080683688830144  0.6829215880959959  1.0000
  C   C56       1.0  0.25065647865110624  0.10806820883251413  0.817078195475703  1.0000
  C   C57       1.0  0.8236493952729048  0.3106661011829683  0.2948859027754671  1.0000
  C   C58       1.0  0.6763508464977034  0.8106663110378353  0.20511418822315447  1.0000
  C   C59       1.0  0.17635060477189266  0.689333898839826  0.7051140974200039  1.0000
  C   C60       1.0  0.3236491535470941  0.18933368898495903  0.7948858119723164  1.0000
  C   C61       1.0  0.908616489156084  0.2850978945196098  0.34977569351828003  1.0000
  C   C62       1.0  0.5913836105146525  0.7850985840899617  0.1502247154447055  1.0000
  C   C63       1.0  0.09138351088895115  0.7149021055031836  0.6502243060871944  1.0000
  C   C64       1.0  0.4086163895301449  0.21490141593283243  0.8497752847507655  1.0000
  C   C65       1.0  0.9889903303160001  0.21058241132020225  0.33069025927191165  1.0000
  C   C66       1.0  0.5110099940427383  0.7105831285671587  0.16930972105890152  1.0000
  C   C67       1.0  0.01100966972879737  0.789417588702592  0.6693097409235593  1.0000
  C   C68       1.0  0.48899000600205916  0.28941687145563555  0.8306902791365695  1.0000
  C   C69       1.0  0.06878732020994813  0.19037672746544015  0.38489328495679576  1.0000
  C   C70       1.0  0.4312129491212254  0.6903774116400766  0.11510676511062767  1.0000
  C   C71       1.0  0.9312126798348493  0.8096232725573541  0.6151067152386752  1.0000
  C   C72       1.0  0.5687870509235721  0.3096225883827176  0.8848932350848432  1.0000
  C   C73       1.0  0.06908480862655673  0.24339429660344178  0.4594737320527938  1.0000
  C   C74       1.0  0.4309153576918881  0.7433950692522173  0.040526290814241174  1.0000
  C   C75       1.0  0.9309151906554302  0.7566057034193525  0.5405262681216979  1.0000
  C   C76       1.0  0.569084642353147  0.2566049307705763  0.9594737087912332  1.0000
  C   C77       1.0  0.989983046948065  0.31663372734573453  0.47998230133657327  1.0000
  C   C78       1.0  0.5100168782482994  0.8166345368734941  0.020017976842810023  1.0000
  C   C79       1.0  0.01001695309673256  0.6833662726770596  0.5200176988588977  1.0000
  C   C80       1.0  0.4899831217964981  0.1833654631493002  0.9799820233526608  1.0000
  C   C81       1.0  0.9103029180432519  0.33674212585073343  0.42480850486846905  1.0000
  C   C82       1.0  0.5896966342030047  0.836743629661422  0.07519149782943924  1.0000
  C   C83       1.0  0.08969708200178322  0.66325787417206  0.5751914947370053  1.0000
  C   C84       1.0  0.41030336584179283  0.16325637036137217  0.9248085023660318  1.0000
  C   C85       1.0  0.75386482946074  0.4394278871057111  0.3949048714623919  1.0000
  C   C86       1.0  0.7461352897873594  0.9394282210232634  0.10509531713828199  1.0000
  C   C87       1.0  0.24613517058405757  0.5605721129170831  0.6050951287330791  1.0000
  C   C88       1.0  0.25386471025767565  0.06057177899953  0.8949046824671923  1.0000
  C   C89       1.0  0.4639620731799759  0.07322891949157222  0.18387178704054633  1.0000
  C   C90       1.0  0.03603813660183081  0.5732294044753187  0.31612801018691306  1.0000
  C   C91       1.0  0.5360379268650591  0.9267710805312214  0.816128212564928  1.0000
  C   C92       1.0  0.9639618634429667  0.42677059554747543  0.6838719900085579  1.0000
  C   C93       1.0  0.3710305013769648  0.015172768611912848  0.18214864129297725  1.0000
  C   C94       1.0  0.12896949455198928  0.5151733845620554  0.31785147346923626  1.0000
  C   C95       1.0  0.6289694986680702  0.9848272314108805  0.817851358312497  1.0000
  C   C96       1.0  0.871030504730235  0.4848266154607381  0.6821485261152589  1.0000
  C   C97       1.0  0.2853201568904808  0.06770455380355597  0.214464765200387  1.0000
  C   C98       1.0  0.21467988691186038  0.567704682451794  0.2855339453265414  1.0000
  C   C99       1.0  0.7146798431543167  0.9322954462192382  0.7855352349950839  1.0000
  C   C100      1.0  0.7853201131329373  0.4322953175710003  0.7144660548689296  1.0000
  C   C101      1.0  0.29301717912173414  0.17764908101937357  0.24865129383349513  1.0000
  C   C102      1.0  0.20698289000000747  0.6776494134906077  0.25134760811852264  1.0000
  C   C103      1.0  0.7069828209230633  0.8223509190034208  0.7513487063619759  1.0000
  C   C104      1.0  0.7930171100450275  0.3223505865321858  0.7486523914869517  1.0000
  C   C105      1.0  0.5401683809281415  0.3117393687976928  0.49303995549869545  1.0000
  C   C106      1.0  0.9598312016893209  0.8117393517466519  0.006960018935286515  1.0000
  C   C107      1.0  0.45983161911689363  0.6882606312251006  0.506960044106779  1.0000
  C   C108      1.0  0.040168798355476515  0.18826064827614233  0.9930399812601844  1.0000
  C   C109      1.0  0.5268007348567706  0.27720696640185566  0.5784849291702175  1.0000
  C   C110      1.0  0.9731988158287753  0.7772067730768455  0.9215149989500817  1.0000
  C   C111      1.0  0.4731992651880269  0.7227930336209385  0.42151507102525343  1.0000
  C   C112      1.0  0.02680118421602222  0.22279322694594889  0.07848500124538924  1.0000
  C   C113      1.0  0.34575455688218976  0.24069047314963493  0.5433132512347383  1.0000
  C   C114      1.0  0.1542451520203195  0.7406903290037417  0.9566866151188606  1.0000
  C   C115      1.0  0.6542454431626078  0.7593095268731593  0.4566867489607327  1.0000
  C   C116      1.0  0.8457548480244781  0.2593096710190525  0.04331338507661032  1.0000
  C   C117      1.0  0.36804737853631087  0.2750286979422484  0.4592376598943654  1.0000
  C   C118      1.0  0.1319522593438991  0.7750286509170096  0.04076224322076812  1.0000
  C   C119      1.0  0.6319526215084866  0.7249713020805459  0.5407623403011056  1.0000
  C   C120      1.0  0.8680477407011359  0.22497134910578387  0.9592377563847062  1.0000
  N   N1        1.0  0.41940392880379634  0.3001469349967668  0.5991580856870133  1.0000
  N   N2        1.0  0.0805956884811828  0.8001466584124424  0.9008419112858251  1.0000
  N   N3        1.0  0.5805960712410011  0.6998530650260273  0.40084191450845763  1.0000
  N   N4        1.0  0.9194043115636148  0.19985334161035173  0.09915808890964578  1.0000
  O   O1        1.0  0.39005778033470717  0.3447246880145491  0.281520364775688  1.0000
  O   O2        1.0  0.10994201307692177  0.8447248680499183  0.21847862649879438  1.0000
  O   O3        1.0  0.6099422197103278  0.6552753120082444  0.7184796348297864  1.0000
  O   O4        1.0  0.8900579869678759  0.15527513110264354  0.7815213736966761  1.0000
  O   O5        1.0  0.6447033004963278  0.2001079665231364  0.18498335622054904  1.0000
  O   O6        1.0  0.8552972233042424  0.7001089063039475  0.31501688560962987  1.0000
  O   O7        1.0  0.35529669954870713  0.799892033499657  0.8150166433849253  1.0000
  O   O8        1.0  0.14470277674079263  0.2998910937188461  0.6849831139958444  1.0000
  O   O9        1.0  0.47258994063334475  0.506020646384375  0.3169568867279058  1.0000
  O   O10       1.0  0.027409932028428716  0.006021299583168998  0.183043199616853  1.0000
  O   O11       1.0  0.5274100594114527  0.49397935363841916  0.6830431134675652  1.0000
  O   O12       1.0  0.9725900680163687  0.9939787004396252  0.816956800578618  1.0000
  O   O13       1.0  0.7951554566084403  0.6138608343108466  0.9663624073987943  1.0000
  O   O14       1.0  0.7048404420139627  0.11386110572755462  0.5336382965892467  1.0000
  O   O15       1.0  0.20484454343635716  0.38613916571194773  0.03363759279667681  1.0000
  O   O16       1.0  0.2951595580310723  0.886138894295239  0.4663617030162277  1.0000
  O   O17       1.0  0.8196315313892154  0.2587023357189999  0.2268117099495627  1.0000
  O   O18       1.0  0.6803688087896032  0.7587027059825558  0.2731881733729686  1.0000
  O   O19       1.0  0.18036846865581962  0.7412976643037936  0.7731882896559116  1.0000
  O   O20       1.0  0.3196311912551943  0.24129729404023836  0.7268118268225023  1.0000
  O   O21       1.0  0.8340875959529721  0.4092497028941672  0.4472491491639735  1.0000
  O   O22       1.0  0.6659123521069487  0.9092500991520298  0.052751041375242586  1.0000
  O   O23       1.0  0.16591240409206312  0.5907502971286261  0.5527508504415007  1.0000
  O   O24       1.0  0.33408764793784884  0.09074990087076439  0.9472489588202285  1.0000
  O   O25       1.0  0.6911774575803391  0.5066900932575583  0.4236743112191105  1.0000
  O   O26       1.0  0.8088229184375826  0.006690389424884436  0.07632616534416076  1.0000
  O   O27       1.0  0.30882254246469587  0.49330990676523506  0.5763256883863639  1.0000
  O   O28       1.0  0.191177081607215  0.9933096105979098  0.9236738348513103  1.0000
  O   O29       1.0  0.4713857981414532  0.24851077251820855  0.4413837800211899  1.0000
  O   O30       1.0  0.02861382836965641  0.7485106650225334  0.058615997483296566  1.0000
  O   O31       1.0  0.5286142011405336  0.7514892275045858  0.5586162201533019  1.0000
  O   O32       1.0  0.9713861716751411  0.25148933500026077  0.9413840027121744  1.0000
