data_image0
_chemical_formula_structural       H44C32N32O24
_chemical_formula_sum              "H44 C32 N32 O24"
_cell_length_a       5.640307799620262
_cell_length_b       19.38918130633504
_cell_length_c       11.44054291774974
_cell_angle_alpha    90.0
_cell_angle_beta     100.7896526773824
_cell_angle_gamma    90.0

_space_group_name_H-M_alt    "P 1"
_space_group_IT_number       1

loop_
  _space_group_symop_operation_xyz
  'x, y, z'

loop_
  _atom_site_type_symbol
  _atom_site_label
  _atom_site_symmetry_multiplicity
  _atom_site_fract_x
  _atom_site_fract_y
  _atom_site_fract_z
  _atom_site_occupancy
  H   H1        1.0  0.9092183883942988  0.0812564143430459  0.29114069505978346  1.0000
  H   H2        1.0  0.5907816103705469  0.5812564141796805  0.20885930481616782  1.0000
  H   H3        1.0  0.0907816110091083  0.9187435858459749  0.7088593046400976  1.0000
  H   H4        1.0  0.40921838903090846  0.4187435860093403  0.7911406957576168  1.0000
  H   H5        1.0  0.9252608885901717  0.2812416498585385  0.240031265844819  1.0000
  H   H6        1.0  0.5747391119795338  0.7812416496951732  0.25996873419865435  1.0000
  H   H7        1.0  0.07473911081323534  0.7187583503304823  0.7599687338550623  1.0000
  H   H8        1.0  0.42526088922873306  0.21875835049384768  0.7400312656687488  1.0000
  H   H9        1.0  0.8327359650414873  0.32010028179849714  0.3672676714614479  1.0000
  H   H10       1.0  0.6672640355282181  0.8201002821508834  0.13273232858202544  1.0000
  H   H11       1.0  0.16726403616677943  0.6798997178747721  0.6327323284059552  1.0000
  H   H12       1.0  0.332735963875189  0.17989971803813748  0.8672676711178556  1.0000
  H   H13       1.0  0.05078155180765932  0.2899703520830467  0.5792850682029274  1.0000
  H   H14       1.0  0.4492184482343091  0.7899703519196815  0.9207149313208833  1.0000
  H   H15       1.0  0.9492184494006076  0.710029648105974  0.4207149316644756  1.0000
  H   H16       1.0  0.550781551169098  0.21002964775358793  0.07928506837899767  1.0000
  H   H17       1.0  0.6086305348200702  0.11080265721678825  0.43487568328134024  1.0000
  H   H18       1.0  0.8913694657496353  0.6108026570534228  0.06512431676213305  1.0000
  H   H19       1.0  0.39136946458333677  0.8891973429722326  0.5651243164185408  1.0000
  H   H20       1.0  0.10863053545863163  0.3891973426198464  0.93487568310527  1.0000
  H   H21       1.0  0.813463717472328  0.17789838856543191  0.4888396703576029  1.0000
  H   H22       1.0  0.6865362830973774  0.6778983884020666  0.011160329685870387  1.0000
  H   H23       1.0  0.18653628192912733  0.8221016116235889  0.5111603302161818  1.0000
  H   H24       1.0  0.31346371811088947  0.32210161127120274  0.9888396701815326  1.0000
  H   H25       1.0  0.4046342849235337  0.9927636998118534  0.8342708960625912  1.0000
  H   H26       1.0  0.09536571511648304  0.49276369997521874  0.6657291043351234  1.0000
  H   H27       1.0  0.5953657144779216  0.007236300377167433  0.1657291045111937  1.0000
  H   H28       1.0  0.904634284286924  0.5072363002138021  0.3342708953647576  1.0000
  H   H29       1.0  0.3180104504567059  0.20031319778989368  0.29814280290296796  1.0000
  H   H30       1.0  0.1819895501464517  0.7003131976265283  0.20185719746768543  1.0000
  H   H31       1.0  0.6819895489447495  0.7996868023991273  0.7018571976708169  1.0000
  H   H32       1.0  0.8180104510618151  0.29968680256249247  0.7981428023997176  1.0000
  H   H33       1.0  0.98420281080554  0.09695715256351606  0.8818477020034615  1.0000
  H   H34       1.0  0.5157971892010247  0.5969571529159022  0.618152298067073  1.0000
  H   H35       1.0  0.015797190400775252  0.9030428471097532  0.11815229873784529  1.0000
  H   H36       1.0  0.48420281020238237  0.40304284727311857  0.3818477016328081  1.0000
  H   H37       1.0  0.6661705346949675  0.01339491007364724  0.9369158538051534  1.0000
  H   H38       1.0  0.8338294653115972  0.5133949099102818  0.563084146265381  1.0000
  H   H39       1.0  0.33382946470648783  0.9866050901153737  0.0630841467686313  1.0000
  H   H40       1.0  0.16617053589666975  0.486605090278739  0.43691585360202206  1.0000
  H   H41       1.0  0.3944142086710342  0.052988615855807955  0.6094484720028555  1.0000
  H   H42       1.0  0.10558579136898255  0.5529886156924426  0.8905515283948592  1.0000
  H   H43       1.0  0.6055857907304211  0.947011384333213  0.39055152857092934  1.0000
  H   H44       1.0  0.8944142080344244  0.44701138398082674  0.10944847130502187  1.0000
  C   C1        1.0  0.20183061250968767  0.14055302113811224  0.08414499860388387  1.0000
  C   C2        1.0  0.29816938809346993  0.6405530209747469  0.41585500176676954  1.0000
  C   C3        1.0  0.7981693868937194  0.8594469790509085  0.9158550010959972  1.0000
  C   C4        1.0  0.7018306131147969  0.35944697921427393  0.5841449981006336  1.0000
  C   C5        1.0  0.999304598788031  0.10278790726191386  0.13446994039478055  1.0000
  C   C6        1.0  0.5006954017816746  0.6027879076143001  0.3655300596486928  1.0000
  C   C7        1.0  0.0006954006153760989  0.8972120924113554  0.8655300593051004  1.0000
  C   C8        1.0  0.49930459942659233  0.3972120925747208  0.6344699402187103  1.0000
  C   C9        1.0  0.12673376053638843  0.26064315198026516  0.4071371097926212  1.0000
  C   C10       1.0  0.37326624006872083  0.7606431518168998  0.09286288970412848  1.0000
  C   C11       1.0  0.8732662388670186  0.7393568482087557  0.5928628899072599  1.0000
  C   C12       1.0  0.6267337611395459  0.23935684837212104  0.9071371101632746  1.0000
  C   C13       1.0  0.441867212931302  0.19934341367663377  0.4900846698664268  1.0000
  C   C14       1.0  0.05813278586699578  0.6993434135132683  0.009915330336704607  1.0000
  C   C15       1.0  0.5581327864721051  0.8006565865123871  0.5099153298334542  1.0000
  C   C16       1.0  0.9418672135344595  0.3006565866757524  0.99008467023708  1.0000
  C   C17       1.0  0.7030871288922702  0.11873006516514652  0.623761248406347  1.0000
  C   C18       1.0  0.7969128711142945  0.6187300655175327  0.8762387516641875  1.0000
  C   C19       1.0  0.29691287051113685  0.8812699345081227  0.37623875129353407  1.0000
  C   C20       1.0  0.20308712828911252  0.3812699346714881  0.12376124803569358  1.0000
  C   C21       1.0  0.6504198177441753  0.1509419450858287  0.5033726364428153  1.0000
  C   C22       1.0  0.8495801822623893  0.6509419454382148  0.9966273636277192  1.0000
  C   C23       1.0  0.3495801816592317  0.8490580545874407  0.4966273632570658  1.0000
  C   C24       1.0  0.1504198171390661  0.3490580547508059  0.0033726369460656334  1.0000
  C   C25       1.0  0.6555186680516055  0.05490451160267286  0.7764677856663683  1.0000
  C   C26       1.0  0.8444813319549591  0.5549045114393075  0.7235322144041662  1.0000
  C   C27       1.0  0.34448133315666135  0.945095488586348  0.22353221420103483  1.0000
  C   C28       1.0  0.15551866744844792  0.44509548823396183  0.2764677852957148  1.0000
  C   C29       1.0  0.02161455781133894  0.026501866782384954  0.45262943947682416  1.0000
  C   C30       1.0  0.4783854427937703  0.5265018666190195  0.04737056001992554  1.0000
  C   C31       1.0  0.9783854415920682  0.9734981334066358  0.547370560223057  1.0000
  C   C32       1.0  0.5216145584144966  0.47349813357000126  0.9526294398474775  1.0000
  N   N1        1.0  0.3070671955065237  0.21945067575441007  0.3827703199399629  1.0000
  N   N2        1.0  0.19293280509663388  0.7194506755910447  0.11722968043069046  1.0000
  N   N3        1.0  0.6929328056997914  0.7805493239188592  0.6172296808013439  1.0000
  N   N4        1.0  0.8070671943067732  0.2805493240822246  0.8827703192691906  1.0000
  N   N5        1.0  0.1636556172029  0.26614060173412213  0.5269550075100436  1.0000
  N   N6        1.0  0.33634438283711676  0.7661406015707568  0.973044992887671  1.0000
  N   N7        1.0  0.8363443840053668  0.7338593984548987  0.47304499235735936  1.0000
  N   N8        1.0  0.6636556165643386  0.23385939861826405  0.02695500768611394  1.0000
  N   N9        1.0  0.8922518432946043  0.13209700139134603  0.7065544333801531  1.0000
  N   N10       1.0  0.6077481567119605  0.6320970012279806  0.7934455666903815  1.0000
  N   N11       1.0  0.10774815610880288  0.8679029987976749  0.293445566319728  1.0000
  N   N12       1.0  0.3922518426894949  0.3679029989610402  0.20655443388340342  1.0000
  N   N13       1.0  0.5539048306612168  0.07109523853643107  0.6630257916370944  1.0000
  N   N14       1.0  0.946095169345348  0.5710952383730658  0.8369742084334401  1.0000
  N   N15       1.0  0.44609517054509845  0.9289047616525898  0.3369742091042124  1.0000
  N   N16       1.0  0.05390483005805912  0.4289047618159551  0.16302579126644098  1.0000
  N   N17       1.0  0.35932473114489144  0.22733974428099207  0.5787869270374356  1.0000
  N   N18       1.0  0.14067526889512533  0.7273397441176267  0.9212130733602788  1.0000
  N   N19       1.0  0.6406752700614238  0.7726602559080288  0.4212130737038711  1.0000
  N   N20       1.0  0.8593247305082816  0.2726602555556426  0.07878692633960219  1.0000
  N   N21       1.0  0.8614496349005871  0.09152712494468097  0.8008904059766094  1.0000
  N   N22       1.0  0.6385503651059775  0.5915271252970672  0.699109594093925  1.0000
  N   N23       1.0  0.1385503645028199  0.9084728747285884  0.19910959372327158  1.0000
  N   N24       1.0  0.36144963429742955  0.4084728748919537  0.3008904056059561  1.0000
  N   N25       1.0  0.5775583618892082  0.010707061155396507  0.850643056195864  1.0000
  N   N26       1.0  0.9224416381173565  0.5107070609920312  0.6493569438746705  1.0000
  N   N27       1.0  0.4224416375141989  0.9892929390336243  0.1493569435040171  1.0000
  N   N28       1.0  0.07755836128605054  0.48929293868123813  0.35064305582521055  1.0000
  N   N29       1.0  0.9478404845556959  0.28902673152935054  0.3310230998771131  1.0000
  N   N30       1.0  0.5521595160140095  0.7890267318817367  0.16897690016636022  1.0000
  N   N31       1.0  0.0521595166525709  0.7109732681439188  0.66897689999029  1.0000
  N   N32       1.0  0.4478404833874458  0.21097326830728413  0.8310231004074246  1.0000
  O   O1        1.0  0.3519704747197073  0.17676500909711884  0.15512981005263635  1.0000
  O   O2        1.0  0.14802952588345025  0.6767650089337536  0.3448701903180171  1.0000
  O   O3        1.0  0.648029524681748  0.823234991091902  0.8448701905211484  1.0000
  O   O4        1.0  0.8519704753248165  0.3232349907395158  0.655129809549386  1.0000
  O   O5        1.0  0.8721974118559089  0.05783031383762669  0.07599237301563659  1.0000
  O   O6        1.0  0.6278025869089366  0.5578303136742614  0.42400762686031473  1.0000
  O   O7        1.0  0.1278025875455464  0.9421696863513941  0.9240076275581482  1.0000
  O   O8        1.0  0.3721974124944704  0.44216968599900797  0.5759923728395663  1.0000
  O   O9        1.0  0.20510229203224653  0.13127672126972978  0.975069472903362  1.0000
  O   O10       1.0  0.2948977080097219  0.6312767211063643  0.5249305266204488  1.0000
  O   O11       1.0  0.7948977073711605  0.868723278919291  0.024930526796519088  1.0000
  O   O12       1.0  0.7051022931985449  0.3687232785669049  0.4750694732469542  1.0000
  O   O13       1.0  0.9860381974986263  0.12232458619720415  0.24170977262837406  1.0000
  O   O14       1.0  0.5139618012662193  0.6223245865495903  0.2582902272475773  1.0000
  O   O15       1.0  0.013961801904780687  0.8776754134760653  0.758290227071507  1.0000
  O   O16       1.0  0.486038198135236  0.3776754136394305  0.7417097733262075  1.0000
  O   O17       1.0  0.8526318098044341  0.029891436922642865  0.3597799146160866  1.0000
  O   O18       1.0  0.6473681907652714  0.5298914367592775  0.1402200854273867  1.0000
  O   O19       1.0  0.14736818959702128  0.970108563266378  0.6402200859576982  1.0000
  O   O20       1.0  0.35263181044299546  0.4701085629139918  0.8597799144400163  1.0000
  O   O21       1.0  0.20980045334919634  0.06179906057242863  0.4719767979602993  1.0000
  O   O22       1.0  0.29019954725396124  0.5617990604090632  0.02802320241035409  1.0000
  O   O23       1.0  0.7901995460522591  0.9382009391008407  0.5280232026134855  1.0000
  O   O24       1.0  0.7098004539543056  0.43820093926420606  0.9719767974570488  1.0000
