data_image0
_chemical_formula_structural       H24C24N4F24Br4
_chemical_formula_sum              "H24 C24 N4 F24 Br4"
_cell_length_a       6.002665379752958
_cell_length_b       10.451216997869608
_cell_length_c       14.344065348652329
_cell_angle_alpha    92.72383500155107
_cell_angle_beta     100.95927654091935
_cell_angle_gamma    90.45483433009713

_space_group_name_H-M_alt    "P 1"
_space_group_IT_number       1

loop_
  _space_group_symop_operation_xyz
  'x, y, z'

loop_
  _atom_site_type_symbol
  _atom_site_label
  _atom_site_symmetry_multiplicity
  _atom_site_fract_x
  _atom_site_fract_y
  _atom_site_fract_z
  _atom_site_occupancy
  H   H1        1.0  0.04987560058471932  0.6895584174601519  0.900720332608745  1.0000
  H   H2        1.0  0.9501243989363195  0.3104415819537651  0.09927966738083902  1.0000
  H   H3        1.0  0.09783368606096625  0.6112425280575033  0.010422518447945497  1.0000
  H   H4        1.0  0.9021663134600727  0.3887574713564136  0.9895774815416385  1.0000
  H   H5        1.0  0.149949839120493  0.8124359232668695  0.0929657969873589  1.0000
  H   H6        1.0  0.8500501620649495  0.18756407614638426  0.9070342029989324  1.0000
  H   H7        1.0  0.0833539961160844  0.8908674178330127  0.9836398203147552  1.0000
  H   H8        1.0  0.9166460050693581  0.10913258158024099  0.016360179671536277  1.0000
  H   H9        1.0  0.43937925578012527  0.7047052311677686  0.8846392991799094  1.0000
  H   H10       1.0  0.5606207437568017  0.29529476920326264  0.1153607008137395  1.0000
  H   H11       1.0  0.6692354197750716  0.7498676788150725  0.8316840075337362  1.0000
  H   H12       1.0  0.3307645814262591  0.25013232155529563  0.1683159924566202  1.0000
  H   H13       1.0  0.7000796090901605  0.9460258153824611  0.9205482081884656  1.0000
  H   H14       1.0  0.2999203904467663  0.05397418498857011  0.07945179180518323  1.0000
  H   H15       1.0  0.47939112880438844  0.8974511738637833  0.9784214212861868  1.0000
  H   H16       1.0  0.5206088707166504  0.10254882555013381  0.02157857870339707  1.0000
  H   H17       1.0  0.7850423680228029  0.5515487103508803  0.08178092544223169  1.0000
  H   H18       1.0  0.21495763151412395  0.44845129002015105  0.9182190745514172  1.0000
  H   H19       1.0  0.5074163986814865  0.598586513644248  0.03043563788241452  1.0000
  H   H20       1.0  0.49258360250395616  0.40141348576900593  0.969564362103877  1.0000
  H   H21       1.0  0.5673294169811844  0.7900929478917419  0.12535422519516012  1.0000
  H   H22       1.0  0.4326705825557425  0.20990705247928934  0.8746457747984887  1.0000
  H   H23       1.0  0.850925962991546  0.7479405248073587  0.16979648773454753  1.0000
  H   H24       1.0  0.14907403654538096  0.2520594755636725  0.8302035122591014  1.0000
  C   C1        1.0  0.6777482758318697  0.356372387287617  0.6812567758714874  1.0000
  C   C2        1.0  0.32225172370505717  0.6436276130834142  0.31874322412216155  1.0000
  C   C3        1.0  0.4265999261583584  0.33984869518042926  0.6266890272669364  1.0000
  C   C4        1.0  0.5734000733626804  0.6601513042334876  0.37331097272264746  1.0000
  C   C5        1.0  0.39703164206718805  0.2619648933615048  0.5282303094818105  1.0000
  C   C6        1.0  0.6029683591341426  0.7380351070088633  0.4717696905085459  1.0000
  C   C7        1.0  0.14362274595347044  0.2397596557063896  0.47524416727669244  1.0000
  C   C8        1.0  0.8563772535834565  0.7602403446646416  0.5247558327169565  1.0000
  C   C9        1.0  0.11686361685053215  0.16135585881788944  0.37706945915211615  1.0000
  C   C10       1.0  0.8831363826863948  0.8386441415531419  0.6229305408415328  1.0000
  C   C11       1.0  0.8680412724601551  0.14427516303702864  0.32072667997753695  1.0000
  C   C12       1.0  0.1319587270767721  0.8557248373340028  0.6792733200161121  1.0000
  C   C13       1.0  0.9969574982682932  0.6844681894478943  0.9698022064144722  1.0000
  C   C14       1.0  0.0030425012686338335  0.31553181092313687  0.03019779357917663  1.0000
  C   C15       1.0  0.026034374784149036  0.8167952407289095  0.025999248731465877  1.0000
  C   C16       1.0  0.9739656247527779  0.18320475964212174  0.974000751262183  1.0000
  C   C17       1.0  0.6159912254889656  0.740104742550289  0.9000058471341431  1.0000
  C   C18       1.0  0.3840087740479614  0.2598952578207422  0.09999415285950579  1.0000
  C   C19       1.0  0.6416772113542887  0.8689966007443626  0.9600382124162059  1.0000
  C   C20       1.0  0.35832278984704186  0.13100339962600535  0.039961787574150386  1.0000
  C   C21       1.0  0.6867387920977626  0.6282289469120479  0.04439126473392515  1.0000
  C   C22       1.0  0.3132612074391644  0.37177105345898326  0.9556087352597238  1.0000
  C   C23       1.0  0.7248023459219853  0.7569233146290472  0.10442048183345569  1.0000
  C   C24       1.0  0.27519765361494164  0.2430766857419841  0.8955795181601933  1.0000
  N   N1        1.0  0.757050534531583  0.6418369901046492  0.9521546034552455  1.0000
  N   N2        1.0  0.2429494666697477  0.35816301026571884  0.04784539653511093  1.0000
  N   N3        1.0  0.8071722479673624  0.856741422710153  0.04933361477774562  1.0000
  N   N4        1.0  0.19282775155367635  0.14325857670376396  0.9506663852118383  1.0000
  F   F1        1.0  0.8063074517028557  0.4120258863579166  0.6255540577794859  1.0000
  F   F2        1.0  0.19369254783407147  0.5879741140131146  0.37444594221416305  1.0000
  F   F3        1.0  0.76445123199031  0.23877258466537732  0.7030909630109583  1.0000
  F   F4        1.0  0.23554876754661694  0.761227415705654  0.2969090369826906  1.0000
  F   F5        1.0  0.33846364202994483  0.4584729814390864  0.6118324794899634  1.0000
  F   F6        1.0  0.6615363591713858  0.5415270189312816  0.3881675205003929  1.0000
  F   F7        1.0  0.30840345252928114  0.27755100822113254  0.6840836963546931  1.0000
  F   F8        1.0  0.691596547007646  0.7224489921498988  0.31591630363895584  1.0000
  F   F9        1.0  0.509911450954619  0.3273671863648722  0.47086408626667137  1.0000
  F   F10       1.0  0.49008854858230794  0.672632814006159  0.5291359137269774  1.0000
  F   F11       1.0  0.49368685536507384  0.14526906704914605  0.5432747519759173  1.0000
  F   F12       1.0  0.5063131441718531  0.8547309333218852  0.45672524801773157  1.0000
  F   F13       1.0  0.04658132955209493  0.35625700268005384  0.45969953665701807  1.0000
  F   F14       1.0  0.9534186716492355  0.6437429976903143  0.5403004633333383  1.0000
  F   F15       1.0  0.030115835138494647  0.1742704996521747  0.5324365865164017  1.0000
  F   F16       1.0  0.9698841643984324  0.8257295007188564  0.4675634134772472  1.0000
  F   F17       1.0  0.2380657753853355  0.22294197438469063  0.32025459233955805  1.0000
  F   F18       1.0  0.7619342241515915  0.7770580259863407  0.6797454076540909  1.0000
  F   F19       1.0  0.2036489998575927  0.04273762082218981  0.39292943191409324  1.0000
  F   F20       1.0  0.7963509996793342  0.9572623795488414  0.6070705680795556  1.0000
  F   F21       1.0  0.7795851206810371  0.2612472981802125  0.2989265281647107  1.0000
  F   F22       1.0  0.22041488050440539  0.7387527012330414  0.7010734718215805  1.0000
  F   F23       1.0  0.7372141360797494  0.08653308776060255  0.3745753259216551  1.0000
  F   F24       1.0  0.26278586345717764  0.9134669126104287  0.6254246740719938  1.0000
  Br  Br1       1.0  0.6968112447174193  0.4638753759212803  0.7998803941324877  1.0000
  Br  Br2       1.0  0.3031887548195078  0.536124624449751  0.20011960586116126  1.0000
  Br  Br3       1.0  0.8606127376013432  0.03783581396137176  0.20221479632525763  1.0000
  Br  Br4       1.0  0.1393872619355839  0.9621641864096594  0.7977852036683912  1.0000
