data_image0
_chemical_formula_structural       H48C40N8F32Br8
_chemical_formula_sum              "H48 C40 N8 F32 Br8"
_cell_length_a       13.3880174629073
_cell_length_b       11.02944903099136
_cell_length_c       10.78018860945405
_cell_angle_alpha    90.0
_cell_angle_beta     107.23535699476537
_cell_angle_gamma    90.0

_space_group_name_H-M_alt    "P 1"
_space_group_IT_number       1

loop_
  _space_group_symop_operation_xyz
  'x, y, z'

loop_
  _atom_site_type_symbol
  _atom_site_label
  _atom_site_symmetry_multiplicity
  _atom_site_fract_x
  _atom_site_fract_y
  _atom_site_fract_z
  _atom_site_occupancy
  H   H1        1.0  0.7005388901125786  0.19637357078437154  0.34105479210608564  1.0000
  H   H2        1.0  0.29946110999111986  0.6963735711927618  0.15894520728907977  1.0000
  H   H3        1.0  0.2994611102511908  0.8036264291257454  0.6589452074906159  1.0000
  H   H4        1.0  0.7005388896236422  0.3036264287173551  0.8410547922988145  1.0000
  H   H5        1.0  0.5865980979249139  0.19488567415835803  0.39385157780563484  1.0000
  H   H6        1.0  0.4134019021787845  0.6948856736600847  0.10614842158953056  1.0000
  H   H7        1.0  0.4134019016898482  0.8051143266584225  0.6061484217822594  1.0000
  H   H8        1.0  0.5865980981849849  0.30511432625003226  0.893851578007171  1.0000
  H   H9        1.0  0.5143476053551529  0.38609928637724855  0.43683612867705107  1.0000
  H   H10       1.0  0.4856523942244762  0.8860992867856389  0.0631638716805075  1.0000
  H   H11       1.0  0.4856523944845471  0.6139007135328685  0.5631638718820436  1.0000
  H   H12       1.0  0.5143476056152239  0.11390071312447811  0.9368361288785872  1.0000
  H   H13       1.0  0.5716349925357855  0.5244073293006662  0.4078128717953292  1.0000
  H   H14       1.0  0.42836500779285075  0.024407328892275912  0.0921871285710367  1.0000
  H   H15       1.0  0.42836500805292177  0.47559267060945076  0.592187128772573  1.0000
  H   H16       1.0  0.5716349920468493  0.975592671017841  0.907812871988058  1.0000
  H   H17       1.0  0.7211509216974293  0.5215868339239172  0.3315708961252303  1.0000
  H   H18       1.0  0.27884907840626905  0.021586833515526902  0.1684291032699351  1.0000
  H   H19       1.0  0.2788490779173328  0.47841316598619976  0.6684291034626639  1.0000
  H   H20       1.0  0.7211509219575003  0.9784131663945901  0.8315708963267664  1.0000
  H   H21       1.0  0.7754916764510379  0.38150148281901936  0.3026034907219354  1.0000
  H   H22       1.0  0.2245083238775984  0.8815014832274096  0.1973965096444305  1.0000
  H   H23       1.0  0.2245083233886622  0.6184985170910976  0.6973965098371594  1.0000
  H   H24       1.0  0.7754916767111089  0.11849851668270733  0.8026034909234716  1.0000
  H   H25       1.0  0.6916366309251634  0.1967099466078216  0.6118057137851021  1.0000
  H   H26       1.0  0.30836336894966976  0.6967099461095482  0.8881942860043283  1.0000
  H   H27       1.0  0.3083633686895989  0.8032900533022954  0.38819428580279214  1.0000
  H   H28       1.0  0.6916366306650924  0.3032900538005687  0.11180571358356595  1.0000
  H   H29       1.0  0.805170966745788  0.1901445823909391  0.5587754698425685  1.0000
  H   H30       1.0  0.19482903312904506  0.6901445827993293  0.9412245299468618  1.0000
  H   H31       1.0  0.19482903286897416  0.8098554175191779  0.44122452974532556  1.0000
  H   H32       1.0  0.8051709672347243  0.3098554171107876  0.05877546964983977  1.0000
  H   H33       1.0  0.6826774331834901  0.5228373705519249  0.6254324888584064  1.0000
  H   H34       1.0  0.317322566691343  0.022837370143534715  0.874567510931024  1.0000
  H   H35       1.0  0.31732256718027924  0.4771626302648556  0.3745675107382951  1.0000
  H   H36       1.0  0.6826774329234191  0.9771626297665822  0.1254324886568703  1.0000
  H   H37       1.0  0.6234319528838932  0.3854025779579605  0.6527769445446961  1.0000
  H   H38       1.0  0.37656804699094  0.8854025783663508  0.8472230552447343  1.0000
  H   H39       1.0  0.376568046730869  0.6145974219521564  0.3472230550431981  1.0000
  H   H40       1.0  0.6234319526238222  0.11459742154376613  0.15277694434315994  1.0000
  H   H41       1.0  0.8846602290801694  0.3779314685880854  0.5182298246326127  1.0000
  H   H42       1.0  0.11533977101960158  0.8779314689964757  0.9817701761280181  1.0000
  H   H43       1.0  0.11533977150853779  0.6220685313220315  0.48177017593528926  1.0000
  H   H44       1.0  0.8846602288200984  0.1220685309136413  0.018229824431076593  1.0000
  H   H45       1.0  0.8321900312630517  0.518229555614189  0.54878444779371  1.0000
  H   H46       1.0  0.16780996861178138  0.0182295552057987  0.9512155519957204  1.0000
  H   H47       1.0  0.1678099683517105  0.48177044520259155  0.4512155517941842  1.0000
  H   H48       1.0  0.8321900319769258  0.9817704447043183  0.0487844485721817  1.0000
  C   C1        1.0  0.3528734507606266  0.3527643601296268  0.9940450851607502  1.0000
  C   C2        1.0  0.6471265493391443  0.8527643605380172  0.5059549155998805  1.0000
  C   C3        1.0  0.6471265490790734  0.6472356397804901  0.005954915398344409  1.0000
  C   C4        1.0  0.35287345050055574  0.14723563937209982  0.4940450849592141  1.0000
  C   C5        1.0  0.25066839156779164  0.3420484050834683  0.03439205717798374  1.0000
  C   C6        1.0  0.7493316085359066  0.8420484054918586  0.46560794221718166  1.0000
  C   C7        1.0  0.7493316080469705  0.6579515948266487  0.9656079424099105  1.0000
  C   C8        1.0  0.25066839182786255  0.15795159441825835  0.5343920573795199  1.0000
  C   C9        1.0  0.1457583746488734  0.34816308495646087  0.9194342105695018  1.0000
  C   C10       1.0  0.8542416254508975  0.8481630844581876  0.5805657901911291  1.0000
  C   C11       1.0  0.8542416251908267  0.6518369158603197  0.0805657899895929  1.0000
  C   C12       1.0  0.14575837513780956  0.1518369154519294  0.4194342103767729  1.0000
  C   C13       1.0  0.04545658858484326  0.30852868538022854  0.954358724368771  1.0000
  C   C14       1.0  0.9545434112899899  0.8085286857886188  0.5456412754206593  1.0000
  C   C15       1.0  0.9545434120038638  0.6914713145298884  0.045641276199131005  1.0000
  C   C16       1.0  0.04545658832477235  0.19147131412149815  0.45435872416723483  1.0000
  C   C17       1.0  0.6614770424405716  0.2411177197090656  0.4049861241617776  1.0000
  C   C18       1.0  0.33852295766312684  0.7411177201174558  0.09501387523338778  1.0000
  C   C19       1.0  0.3385229571741906  0.7588822802010514  0.5950138754261165  1.0000
  C   C20       1.0  0.6614770427006424  0.25888227979266104  0.9049861243633138  1.0000
  C   C21       1.0  0.5889107456935803  0.43170694534430637  0.4454972099011645  1.0000
  C   C22       1.0  0.411089254635056  0.931706944846033  0.054502790465201366  1.0000
  C   C23       1.0  0.41108925392118195  0.5682930545658106  0.5545027896867297  1.0000
  C   C24       1.0  0.5889107459536512  0.06829305506408392  0.9454972101027006  1.0000
  C   C25       1.0  0.7390743595181468  0.4288167003365614  0.3675707516580201  1.0000
  C   C26       1.0  0.2609256400614822  0.9288167007449516  0.1324292486995384  1.0000
  C   C27       1.0  0.2609256403215532  0.5711832995735555  0.6324292489010745  1.0000
  C   C28       1.0  0.7390743597782178  0.07118330007182885  0.8675707518595563  1.0000
  C   C29       1.0  0.7320014418428169  0.2396828828504399  0.5483012372161943  1.0000
  C   C30       1.0  0.2679985580320161  0.7396828823521666  0.951698762573236  1.0000
  C   C31       1.0  0.2679985577719452  0.7603171170596771  0.4516987623716999  1.0000
  C   C32       1.0  0.732001441582746  0.2603171175579504  0.04830123701465812  1.0000
  C   C33       1.0  0.6615279736465076  0.4308446629244614  0.5882663150488594  1.0000
  C   C34       1.0  0.3384720262283255  0.9308446633328517  0.9117336847405709  1.0000
  C   C35       1.0  0.33847202596825454  0.5691553369856556  0.4117336845390347  1.0000
  C   C36       1.0  0.6615279743603817  0.0691553374839289  0.08826631582733116  1.0000
  C   C37       1.0  0.8115663340951518  0.42652003348322876  0.5102765940269469  1.0000
  C   C38       1.0  0.1884336657796813  0.9265200329849554  0.9897234057624835  1.0000
  C   C39       1.0  0.18843366574454823  0.5734799664268883  0.48972340653214785  1.0000
  C   C40       1.0  0.811566334584088  0.07347996692516152  0.010276593834218032  1.0000
  N   N1        1.0  0.6395818130323181  0.36748089307192655  0.36045876665085863  1.0000
  N   N2        1.0  0.3604181872963182  0.8674808925736532  0.13954123371550722  1.0000
  N   N3        1.0  0.36041818733145126  0.632519107744854  0.6395412329458429  1.0000
  N   N4        1.0  0.6395818125433818  0.13251910733646374  0.8604587668435875  1.0000
  N   N5        1.0  0.7584208089209334  0.3647633430006782  0.5943699363887758  1.0000
  N   N6        1.0  0.24157919095389965  0.8647633425024048  0.9056300634006547  1.0000
  N   N7        1.0  0.2415791914428358  0.6352366569094386  0.40563006320792566  1.0000
  N   N8        1.0  0.7584208088858004  0.13523665740771204  0.09436993715844015  1.0000
  F   F1        1.0  0.36087384214599316  0.25501311553249817  0.9192782469762195  1.0000
  F   F2        1.0  0.639126158477847  0.7550131159408885  0.5807217528220182  1.0000
  F   F3        1.0  0.6391261582177762  0.7449868843776187  0.08072175262048202  1.0000
  F   F4        1.0  0.3608738418859222  0.2449868839692285  0.4192782467746834  1.0000
  F   F5        1.0  0.3468188550776781  0.4541163340005758  0.9195169987117484  1.0000
  F   F6        1.0  0.6531811447971549  0.9541163344089661  0.5804830010776819  1.0000
  F   F7        1.0  0.6531811452860913  0.5458836659095412  0.0804830008849531  1.0000
  F   F8        1.0  0.34681885481760716  0.04588366640781445  0.4195169985102123  1.0000
  F   F9        1.0  0.2548814704239227  0.23429307599490592  0.09874487917684578  1.0000
  F   F10       1.0  0.7451185289307685  0.7342930754966326  0.40125512020951226  1.0000
  F   F11       1.0  0.7451185291908394  0.7657069248218745  0.9012551204110484  1.0000
  F   F12       1.0  0.25488147068399364  0.26570692441348437  0.598744879378382  1.0000
  F   F13       1.0  0.24948316510450697  0.43439422101117947  0.11853170096045217  1.0000
  F   F14       1.0  0.7505168352241293  0.9343942214195697  0.3814682994059137  1.0000
  F   F15       1.0  0.7505168354842002  0.5656057788989375  0.8814682996074498  1.0000
  F   F16       1.0  0.24948316536457793  0.06560577939721084  0.6185317011619884  1.0000
  F   F17       1.0  0.15456762894550422  0.2753818555637314  0.8204045633449037  1.0000
  F   F18       1.0  0.8454323709293288  0.775381855065458  0.6795954364445267  1.0000
  F   F19       1.0  0.845432371643203  0.7246181443463855  0.17959543722299837  1.0000
  F   F20       1.0  0.15456762868543325  0.22461814484465886  0.3204045631433675  1.0000
  F   F21       1.0  0.13298327357340692  0.4651728536560313  0.8757449325058558  1.0000
  F   F22       1.0  0.8670167263014261  0.9651728540644214  0.6242550672835745  1.0000
  F   F23       1.0  0.8670167260413552  0.5348271462540857  0.12425506708203835  1.0000
  F   F24       1.0  0.13298327353827388  0.034827145845695406  0.3757449332755202  1.0000
  F   F25       1.0  0.05234509789302674  0.18721778886668466  0.9828689449499529  1.0000
  F   F26       1.0  0.9476549019818064  0.6872177883684113  0.5171310548394775  1.0000
  F   F27       1.0  0.9476549017217354  0.8127822110434324  0.0171310546379413  1.0000
  F   F28       1.0  0.05234509763295582  0.31278221154170566  0.48286894474841674  1.0000
  F   F29       1.0  0.04029535901520389  0.36883037480561764  0.06264949426747936  1.0000
  F   F30       1.0  0.9597046405644252  0.868830375214008  0.43735050609007925  1.0000
  F   F31       1.0  0.959704640824496  0.6311696251044993  0.9373505062916153  1.0000
  F   F32       1.0  0.040295359275274834  0.13116962469610902  0.5626494944690156  1.0000
  Br  Br1       1.0  0.4788844127928951  0.360322114806744  0.14737081180805575  1.0000
  Br  Br2       1.0  0.5211155873108032  0.8603221143084707  0.3526291875871096  1.0000
  Br  Br3       1.0  0.521115586821867  0.639677885103373  0.8526291877798384  1.0000
  Br  Br4       1.0  0.4788844130529661  0.1396778856016463  0.6473708120095919  1.0000
  Br  Br5       1.0  0.9183164143187919  0.3388151112081536  0.807650960081108  1.0000
  Br  Br6       1.0  0.08168358555604117  0.838815111616544  0.6923490397083223  1.0000
  Br  Br7       1.0  0.08168358529597022  0.6611848887019633  0.19234903950678606  1.0000
  Br  Br8       1.0  0.9183164140587209  0.16118488829357305  0.307650959879572  1.0000
