data_image0
_chemical_formula_structural       H56C76N16O4F16I8
_chemical_formula_sum              "H56 C76 N16 O4 F16 I8"
_cell_length_a       13.125530599311906
_cell_length_b       4.504967184071591
_cell_length_c       35.17160737691139
_cell_angle_alpha    90.0
_cell_angle_beta     98.17789807852826
_cell_angle_gamma    90.0

_space_group_name_H-M_alt    "P 1"
_space_group_IT_number       1

loop_
  _space_group_symop_operation_xyz
  'x, y, z'

loop_
  _atom_site_type_symbol
  _atom_site_label
  _atom_site_symmetry_multiplicity
  _atom_site_fract_x
  _atom_site_fract_y
  _atom_site_fract_z
  _atom_site_occupancy
  H   H1        1.0  0.5548189379038733  0.7291336331181143  0.08620625020810053  1.0000
  H   H2        1.0  0.44518106249586586  0.2291336335700145  0.4137937499410658  1.0000
  H   H3        1.0  0.44518106237013344  0.27086636597808533  0.9137937498947841  1.0000
  H   H4        1.0  0.554818937778141  0.7708663677459572  0.5862062501618188  1.0000
  H   H5        1.0  0.4245093193135465  0.7404534203477098  0.04213202959360768  1.0000
  H   H6        1.0  0.575490680214347  0.24045342079960993  0.4578679702685308  1.0000
  H   H7        1.0  0.5754906800886146  0.2595465787484899  0.957867970222249  1.0000
  H   H8        1.0  0.42450931918781404  0.7595465805163618  0.542132029547326  1.0000
  H   H9        1.0  0.6882834611253463  0.24653309216699293  0.09873077307788869  1.0000
  H   H10       1.0  0.31171653916433956  0.7465330917150927  0.40126922678403665  1.0000
  H   H11       1.0  0.31171653903860724  0.7534669091489787  0.9012692267377549  1.0000
  H   H12       1.0  0.688283460999614  0.25346690738110694  0.598730773031607  1.0000
  H   H13       1.0  0.6966155927762472  0.9159231668965756  0.1255210129867796  1.0000
  H   H14       1.0  0.3033844068616995  0.4159231673484758  0.3744789871626  1.0000
  H   H15       1.0  0.30338440749775963  0.08407683219962404  0.8744789871161052  1.0000
  H   H16       1.0  0.6966155926505149  0.5840768339674959  0.6255210129404979  1.0000
  H   H17       1.0  0.7517473855656026  0.4692467167073611  0.16508636432348983  1.0000
  H   H18       1.0  0.2482526140723441  0.9692467162554609  0.33491363582588973  1.0000
  H   H19       1.0  0.24825261394661174  0.5307532823888386  0.834913635779608  1.0000
  H   H20       1.0  0.7517473854398701  0.030753282840738746  0.6650863642772081  1.0000
  H   H21       1.0  0.528698774063918  0.6952548913284662  0.23191969213962638  1.0000
  H   H22       1.0  0.4713012255740287  0.1952548895605943  0.2680803080097532  1.0000
  H   H23       1.0  0.47130122544829633  0.30474510998750554  0.7680803079634716  1.0000
  H   H24       1.0  0.5286987746999782  0.8047451095356054  0.7319196920931315  1.0000
  H   H25       1.0  0.39989477430245185  0.3571513740852216  0.19474099902380274  1.0000
  H   H26       1.0  0.6001052259872341  0.8571513736333215  0.3052590008381226  1.0000
  H   H27       1.0  0.6001052258615018  0.6428486250109781  0.805259000791841  1.0000
  H   H28       1.0  0.3998947741767194  0.14284862546287824  0.6947409989775211  1.0000
  H   H29       1.0  0.45060702611625547  0.07559630649566748  0.13887814560427797  1.0000
  H   H30       1.0  0.549392973411638  0.5755963060437673  0.36112185425786053  1.0000
  H   H31       1.0  0.549392974047698  0.9244036926005321  0.8611218542113656  1.0000
  H   H32       1.0  0.4506070259905231  0.42440369305243236  0.6388781455579963  1.0000
  H   H33       1.0  0.34021049143449916  0.9158551442035172  0.9856976916966466  1.0000
  H   H34       1.0  0.6597895087137752  0.41585514465541745  0.5143023083599563  1.0000
  H   H35       1.0  0.6597895088395075  0.08414485711245438  0.014302308406238  1.0000
  H   H36       1.0  0.34021049145017834  0.5841448566605543  0.48569769145568736  1.0000
  H   H37       1.0  0.42161326637776925  0.2297031538118204  0.9907961470574324  1.0000
  H   H38       1.0  0.5783867337705052  0.7297031533599202  0.5092038529991706  1.0000
  H   H39       1.0  0.5783867337861843  0.7702968475041513  0.009203852758211202  1.0000
  H   H40       1.0  0.4216132665035016  0.27029684573627943  0.4907961471037141  1.0000
  H   H41       1.0  0.23481988072282017  0.3560802963608243  0.9488722886974101  1.0000
  H   H42       1.0  0.7651801193154011  0.8560802959089241  0.5511277110719518  1.0000
  H   H43       1.0  0.7651801194411335  0.6439197027353755  0.05112771111823352  1.0000
  H   H44       1.0  0.23481988084855251  0.14391970318727557  0.4488722887436918  1.0000
  H   H45       1.0  0.05329124609533835  0.8365526042731126  0.014129180307955968  1.0000
  H   H46       1.0  0.9467087541943475  0.3365526047250128  0.48587081955396927  1.0000
  H   H47       1.0  0.9467087541786684  0.16344739482308707  0.9858708197949287  1.0000
  H   H48       1.0  0.05329124596960593  0.6634473965909589  0.5141291802616742  1.0000
  H   H49       1.0  0.14954729311499304  0.6433493478592989  0.07525725388251155  1.0000
  H   H50       1.0  0.8504527064129004  0.14334934831119905  0.4247427459796269  1.0000
  H   H51       1.0  0.8504527070489605  0.3566506512369008  0.924742745933132  1.0000
  H   H52       1.0  0.14954729298926064  0.8566506530047727  0.5752572538362298  1.0000
  H   H53       1.0  0.29686940832628217  0.291449073068128  0.07225371650073847  1.0000
  H   H54       1.0  0.703130592073457  0.7914490726162279  0.4277462836484279  1.0000
  H   H55       1.0  0.7031305919477245  0.7085509282478437  0.9277462836021461  1.0000
  H   H56       1.0  0.2968694082005498  0.20855092869974381  0.5722537164544568  1.0000
  C   C1        1.0  0.4983774511271892  0.1194964575776242  0.061985249634670975  1.0000
  C   C2        1.0  0.5016225492725499  0.6194964571257241  0.4380147505144954  1.0000
  C   C3        1.0  0.5016225491468176  0.8805035415185755  0.9380147504682136  1.0000
  C   C4        1.0  0.4983774510014568  0.38050354197047564  0.5619852495883892  1.0000
  C   C5        1.0  0.643107023250197  0.09205730098685876  0.11398743849680121  1.0000
  C   C6        1.0  0.35689297638774964  0.5920573005349586  0.38601256165257836  1.0000
  C   C7        1.0  0.3568929762620172  0.907942700329113  0.8860125616062966  1.0000
  C   C8        1.0  0.643107023886257  0.4079426985612411  0.6139874384503062  1.0000
  C   C9        1.0  0.605064219778852  0.25429622085828596  0.14695160381492456  1.0000
  C   C10       1.0  0.3949357798590945  0.7542962204063859  0.353048396334455  1.0000
  C   C11       1.0  0.3949357797333621  0.7457037782379137  0.8530483962881733  1.0000
  C   C12       1.0  0.6050642204149123  0.24570377868981386  0.6469516037684296  1.0000
  C   C13       1.0  0.6721707121297148  0.44238376187211076  0.17016670565729033  1.0000
  C   C14       1.0  0.32782928750823187  0.9423837636399826  0.32983329449208926  1.0000
  C   C15       1.0  0.3278292873824995  0.5576162372240889  0.8298332944458076  1.0000
  C   C16       1.0  0.672170712765775  0.05761623767598908  0.6701667056107955  1.0000
  C   C17       1.0  0.5483237346748072  0.5655496557240874  0.20776118792311493  1.0000
  C   C18       1.0  0.4516762648530862  0.06554965617598764  0.2922388119390236  1.0000
  C   C19       1.0  0.4516762647273538  0.4344503455918842  0.7922388118927419  1.0000
  C   C20       1.0  0.5483237354209205  0.934450345139984  0.7077611881638611  1.0000
  C   C21       1.0  0.4767017354392703  0.3783723921512393  0.18683904645277108  1.0000
  C   C22       1.0  0.5232982641986764  0.8783723916993391  0.3131609536966085  1.0000
  C   C23       1.0  0.5232982648347365  0.6216276091647324  0.8131609536501136  1.0000
  C   C24       1.0  0.47670173531353793  0.12162760961663259  0.6868390464064894  1.0000
  C   C25       1.0  0.5053570320846347  0.2224293982746304  0.15584038668846065  1.0000
  C   C26       1.0  0.49464296755331194  0.7224294000425022  0.3441596134609189  1.0000
  C   C27       1.0  0.4946429674275796  0.7775706008215693  0.8441596134146372  1.0000
  C   C28       1.0  0.5053570319589022  0.2775706012734695  0.655840386642179  1.0000
  C   C29       1.0  0.3677137560816061  0.09811474799701357  0.005239758455586967  1.0000
  C   C30       1.0  0.632286244318133  0.5981147497648854  0.49476024169357935  1.0000
  C   C31       1.0  0.6322862441924006  0.901885251099186  0.9947602416472978  1.0000
  C   C32       1.0  0.36771375595587374  0.4018852515510863  0.5052397584093054  1.0000
  C   C33       1.0  0.27829496329675174  0.29787748837432476  0.010372281586257165  1.0000
  C   C34       1.0  0.7217050371029874  0.7978774901421966  0.4896277185629092  1.0000
  C   C35       1.0  0.721705036977255  0.7021225107218748  0.9896277185166273  1.0000
  C   C36       1.0  0.2782949631710193  0.20212251117377503  0.5103722815399755  1.0000
  C   C37       1.0  0.2189659801347351  0.4159039330241268  0.977632300575802  1.0000
  C   C38       1.0  0.7810340192517469  0.9159039325722266  0.5223676994810142  1.0000
  C   C39       1.0  0.7810340193774792  0.5840960682918449  0.02236769952729593  1.0000
  C   C40       1.0  0.21896598026046746  0.08409606652397304  0.47763230062208356  1.0000
  C   C41       1.0  0.11739051141111882  0.6828493137256811  0.013732780607513395  1.0000
  C   C42       1.0  0.8826094882268278  0.18284931195780932  0.4862672195418662  1.0000
  C   C43       1.0  0.8826094881010954  0.3171506875902905  0.9862672194955844  1.0000
  C   C44       1.0  0.1173905120471789  0.8171506871383905  0.5137327805610185  1.0000
  C   C45       1.0  0.1714668042144011  0.57531679457375  0.04787928340149676  1.0000
  C   C46       1.0  0.8285331960752848  0.07531679502565007  0.45212071646042856  1.0000
  C   C47       1.0  0.8285331960596056  0.42468320674222176  0.9521207167013879  1.0000
  C   C48       1.0  0.17146680408866877  0.9246832062903215  0.5478792833552151  1.0000
  C   C49       1.0  0.2530855932135726  0.3802621861613047  0.046117242577700265  1.0000
  C   C50       1.0  0.7469144063143208  0.8802621857094045  0.4538827572844382  1.0000
  C   C51       1.0  0.7469144061885885  0.619737812934895  0.9538827572381566  1.0000
  C   C52       1.0  0.25308559395968583  0.11973781338679512  0.5461172428184464  1.0000
  C   C53       1.0  0.14304088511514004  0.6544673089794356  0.20209162944854972  1.0000
  C   C54       1.0  0.8569591144127534  0.15446730943133583  0.29790837041358875  1.0000
  C   C55       1.0  0.8569591142870211  0.345532690116764  0.797908370367307  1.0000
  C   C56       1.0  0.14304088586125335  0.8455326896648638  0.702091629689296  1.0000
  C   C57       1.0  0.19427134442119395  0.8270427458769234  0.17791590196745383  1.0000
  C   C58       1.0  0.8057286559785451  0.32704274632882363  0.3220840981817126  1.0000
  C   C59       1.0  0.8057286558528127  0.17295725321927624  0.8220840981354308  1.0000
  C   C60       1.0  0.1942713442954616  0.6729572527673762  0.6779159019211721  1.0000
  C   C61       1.0  0.14142388939296682  0.9797907952818189  0.14685579207956653  1.0000
  C   C62       1.0  0.8585761110067722  0.479790795733719  0.35314420806959984  1.0000
  C   C63       1.0  0.85857611088104  0.020209206034152813  0.8531442080233181  1.0000
  C   C64       1.0  0.14142388926723443  0.5202092055822526  0.6468557920332848  1.0000
  C   C65       1.0  0.034626660098419124  0.9650466523644519  0.13837051166485184  1.0000
  C   C66       1.0  0.9653733401912669  0.46504665059658  0.36162948819707347  1.0000
  C   C67       1.0  0.9653733400655345  0.03495334895151983  0.8616294881507918  1.0000
  C   C68       1.0  0.03462666008273988  0.5349533484996196  0.6383705119058112  1.0000
  C   C69       1.0  0.9832918426986554  0.7951897125169096  0.16277473040574394  1.0000
  C   C70       1.0  0.016708156829237958  0.29518971296880975  0.3372252694563946  1.0000
  C   C71       1.0  0.016708156813558722  0.2048102865792901  0.8372252696973539  1.0000
  C   C72       1.0  0.9832918425729232  0.7048102883471619  0.6627747303594623  1.0000
  C   C73       1.0  0.036013219933693656  0.6407577795918807  0.1938833993347843  1.0000
  C   C74       1.0  0.9639867804660455  0.14075778004378092  0.30611660081438213  1.0000
  C   C75       1.0  0.9639867803403132  0.35924221950431895  0.8061166007681003  1.0000
  C   C76       1.0  0.03601321980796131  0.8592422190524188  0.6938833992885026  1.0000
  N   N1        1.0  0.5626413380651609  0.9556584019573146  0.08744579515312774  1.0000
  N   N2        1.0  0.43735866157278575  0.45565840018944276  0.41255420499625184  1.0000
  N   N3        1.0  0.4373586614470533  0.04434159935865707  0.9125542049499701  1.0000
  N   N4        1.0  0.562641338701221  0.5443415989067569  0.5874457951066328  1.0000
  N   N5        1.0  0.6444622558337199  0.5972727747082387  0.19954597040579755  1.0000
  N   N6        1.0  0.3555377436941736  0.09727277516013891  0.300454029456341  1.0000
  N   N7        1.0  0.35553774356844126  0.40272722438796094  0.8004540294100593  1.0000
  N   N8        1.0  0.64446225646978  0.9027272261558328  0.6995459703593027  1.0000
  N   N9        1.0  0.4217265681170942  0.9670776571700697  0.03997180142137507  1.0000
  N   N10       1.0  0.5782734322826449  0.46707765762196984  0.46002819872779127  1.0000
  N   N11       1.0  0.5782734321569126  0.032922341926130014  0.9600281986815096  1.0000
  N   N12       1.0  0.42172656799136177  0.5329223414742298  0.5399718013750934  1.0000
  N   N13       1.0  0.14060612579211643  0.6039367810757318  0.979151672854198  1.0000
  N   N14       1.0  0.859393874356158  0.10393678152763189  0.520848327202405  1.0000
  N   N15       1.0  0.8593938744818904  0.39606321802046796  0.020848327248686765  1.0000
  N   N16       1.0  0.14060612591784874  0.8960632175685677  0.47915167290047966  1.0000
  O   O1        1.0  0.508749539532313  0.396101005199163  0.05853975010446136  1.0000
  O   O2        1.0  0.4912504599955805  0.8961010069670348  0.44146024975767717  1.0000
  O   O3        1.0  0.49125045997990135  0.6038989938970366  0.9414602499986366  1.0000
  O   O4        1.0  0.5087495394065806  0.1038989943489368  0.5585397500581797  1.0000
  F   F1        1.0  0.29865342104855713  0.8492405590715624  0.1841261784381097  1.0000
  F   F2        1.0  0.7013465784793363  0.3492405595234626  0.31587382142402887  1.0000
  F   F3        1.0  0.7013465784636571  0.15075944002463726  0.8158738216649881  1.0000
  F   F4        1.0  0.29865342168461717  0.6507594417925091  0.6841261783916147  1.0000
  F   F5        1.0  0.19693932022721167  0.14380777118435603  0.12445432019441277  1.0000
  F   F6        1.0  0.8030606800624743  0.6438077707324559  0.3755456796675125  1.0000
  F   F7        1.0  0.8030606799367419  0.8561922301316156  0.8755456796212308  1.0000
  F   F8        1.0  0.1969393202115324  0.3561922283637438  0.6244543204353721  1.0000
  F   F9        1.0  0.8788101027752312  0.7739475378039941  0.1558956287455111  1.0000
  F   F10       1.0  0.12118989686271552  0.2739475382558942  0.3441043714038684  1.0000
  F   F11       1.0  0.12118989749877569  0.22605246129220566  0.8441043713573736  1.0000
  F   F12       1.0  0.8788101026494987  0.7260524608403055  0.6558956286992293  1.0000
  F   F13       1.0  0.9814920996836923  0.47244654467746666  0.2157183920769953  1.0000
  F   F14       1.0  0.01850789995425431  0.9724465442255664  0.2842816080723843  1.0000
  F   F15       1.0  0.018507899828521936  0.527553454418733  0.7842816080261026  1.0000
  F   F16       1.0  0.9814921003197525  0.027553454870633175  0.7157183920305005  1.0000
  I   I1        1.0  0.22778133617257873  0.41998842226637023  0.24842391001487812  1.0000
  I   I2        1.0  0.7722186634653679  0.91998842181447  0.2515760901345014  1.0000
  I   I3        1.0  0.7722186633396354  0.5800115768298295  0.7515760900882197  1.0000
  I   I4        1.0  0.22778133680863885  0.08001157728172964  0.7484239099683833  1.0000
  I   I5        1.0  0.956066760311694  0.165336267627774  0.08783972363287355  1.0000
  I   I6        1.0  0.04393324008804505  0.6653362671758739  0.41216027651629283  1.0000
  I   I7        1.0  0.043933239962312694  0.8346637336881977  0.9121602764700111  1.0000
  I   I8        1.0  0.9560667601859617  0.3346637341400978  0.5878397235865919  1.0000
