data_image0
_chemical_formula_structural       H56C100N16O4F32I16
_chemical_formula_sum              "H56 C100 N16 O4 F32 I16"
_cell_length_a       14.072499370475697
_cell_length_b       23.796376655418655
_cell_length_c       9.01596671040892
_cell_angle_alpha    90.0
_cell_angle_beta     104.7397849723081
_cell_angle_gamma    90.0

_space_group_name_H-M_alt    "P 1"
_space_group_IT_number       1

loop_
  _space_group_symop_operation_xyz
  'x, y, z'

loop_
  _atom_site_type_symbol
  _atom_site_label
  _atom_site_symmetry_multiplicity
  _atom_site_fract_x
  _atom_site_fract_y
  _atom_site_fract_z
  _atom_site_occupancy
  H   H1        1.0  0.3210934528776721  0.21467984828004155  0.4946908843418033  1.0000
  H   H2        1.0  0.6789065465499058  0.714679847956071  0.005309115402734984  1.0000
  H   H3        1.0  0.6789065468235147  0.7853201519124812  0.5053091154426977  1.0000
  H   H4        1.0  0.321093453151281  0.28532015181621984  0.9946908843817661  1.0000
  H   H5        1.0  0.46476823900124514  0.26081650538115536  0.5994433787328994  1.0000
  H   H6        1.0  0.5352317611645202  0.7608165050571847  0.900556622238432  1.0000
  H   H7        1.0  0.5352317608909113  0.7391834948113672  0.40055662219846927  1.0000
  H   H8        1.0  0.4647682394371728  0.239183494715106  0.09944337868644665  1.0000
  H   H9        1.0  0.2449857503477015  0.13567564410125524  0.357078857673294  1.0000
  H   H10       1.0  0.755014249789413  0.6356756437772846  0.14292114206475434  1.0000
  H   H11       1.0  0.7550142493534855  0.8643243560912676  0.642921142111207  1.0000
  H   H12       1.0  0.24498575062131042  0.3643243559950061  0.8570788577132568  1.0000
  H   H13       1.0  0.33073251377962903  0.13751385546567485  0.2444787514499351  1.0000
  H   H14       1.0  0.6692674863574855  0.6375138555619362  0.25552124828811323  1.0000
  H   H15       1.0  0.6692674866310944  0.8624861447268479  0.755521248328076  1.0000
  H   H16       1.0  0.3307325133437014  0.36248614463058654  0.7444787514963879  1.0000
  H   H17       1.0  0.2594652407757455  0.27726426025020917  0.2259048493975345  1.0000
  H   H18       1.0  0.7405347593613689  0.7772642603464706  0.2740951503405138  1.0000
  H   H19       1.0  0.7405347596349778  0.7227357399423135  0.7740951503804766  1.0000
  H   H20       1.0  0.2594652403398179  0.2227357398460522  0.7259048494439871  1.0000
  H   H21       1.0  0.02848123150386374  0.2695006661251375  0.8361520460797547  1.0000
  H   H22       1.0  0.9715187684709321  0.7695006662213988  0.6638479537447092  1.0000
  H   H23       1.0  0.9715187689068597  0.7304993340673852  0.16384795369825642  1.0000
  H   H24       1.0  0.02848123142122437  0.23049933397112385  0.3361520471866594  1.0000
  H   H25       1.0  0.016198853047136943  0.16451206192807366  0.8587387134184125  1.0000
  H   H26       1.0  0.9838011469276589  0.664512062024335  0.6412612864060513  1.0000
  H   H27       1.0  0.9838011466540499  0.835487937844217  0.14126128636608848  1.0000
  H   H28       1.0  0.016198853483064577  0.3354879381681877  0.3587387133719599  1.0000
  H   H29       1.0  0.1328410519503839  0.11546648886036719  0.07482987063626588  1.0000
  H   H30       1.0  0.8671589481867307  0.6154664885363965  0.4251701291017825  1.0000
  H   H31       1.0  0.8671589477508029  0.8845335113321555  0.9251701291482353  1.0000
  H   H32       1.0  0.1328410522239928  0.3845335112358942  0.5748298706762287  1.0000
  H   H33       1.0  0.5930394137033561  0.3128617422646447  0.5167816280854081  1.0000
  H   H34       1.0  0.40696058627143966  0.812861742360906  0.9832183717390558  1.0000
  H   H35       1.0  0.40696058599783075  0.6871382575076459  0.4832183716990929  1.0000
  H   H36       1.0  0.5930394141392837  0.1871382574113846  0.01678162803895543  1.0000
  H   H37       1.0  0.6031673073862452  0.25415597960888786  0.40048182752293693  1.0000
  H   H38       1.0  0.39683269275086924  0.7541559797051492  0.09951817221511144  1.0000
  H   H39       1.0  0.39683269231494167  0.7458440201634028  0.5995181722615642  1.0000
  H   H40       1.0  0.603167307659854  0.24584402006714143  0.9004818275628997  1.0000
  H   H41       1.0  0.6084008131422173  0.15674097044310628  0.6168701810688498  1.0000
  H   H42       1.0  0.3915991870235481  0.6567409705393676  0.8831298199024815  1.0000
  H   H43       1.0  0.3915991867499392  0.8432590297494165  0.3831298198625188  1.0000
  H   H44       1.0  0.6084008135781449  0.3432590296531551  0.11687018102239714  1.0000
  H   H45       1.0  0.8548260799384768  0.17491493054898322  0.9788862766228501  1.0000
  H   H46       1.0  0.14517392003631907  0.6749149306452445  0.5211137232016138  1.0000
  H   H47       1.0  0.14517392047224673  0.8250850692233075  0.021113723155161097  1.0000
  H   H48       1.0  0.8548260798558375  0.3250850691270461  0.47888627772975484  1.0000
  H   H49       1.0  0.8664739364801153  0.2780071960448472  0.9269289882891816  1.0000
  H   H50       1.0  0.13352606349468055  0.7780071961411085  0.5730710115352825  1.0000
  H   H51       1.0  0.1335260632210716  0.7219928041476755  0.07307101149531965  1.0000
  H   H52       1.0  0.8664739369160429  0.22199280405141414  0.4269289882427287  1.0000
  H   H53       1.0  0.7400633215507887  0.32099918111947584  0.7088741025687387  1.0000
  H   H54       1.0  0.25993667842400703  0.820999180795505  0.791125897255725  1.0000
  H   H55       1.0  0.2599366781503981  0.6790008190730469  0.2911258972157623  1.0000
  H   H56       1.0  0.7400633219867163  0.17900081897678552  0.20887410252228603  1.0000
  C   C1        1.0  0.4361628245575534  0.21693798617969376  0.39179531311601357  1.0000
  C   C2        1.0  0.5638371748700246  0.7169379862759552  0.1082046866285247  1.0000
  C   C3        1.0  0.5638371751436335  0.7830620135925969  0.6082046866684875  1.0000
  C   C4        1.0  0.4361628248311623  0.2830620139165676  0.8917953131559764  1.0000
  C   C5        1.0  0.28302718514590547  0.16398113992331023  0.2946636755433155  1.0000
  C   C6        1.0  0.7169728142816726  0.6639811400195716  0.20533632420122275  1.0000
  C   C7        1.0  0.7169728145552815  0.8360188598489804  0.7053363242411856  1.0000
  C   C8        1.0  0.2830271854195144  0.33601885975271906  0.7946636755832783  1.0000
  C   C9        1.0  0.20830624655600122  0.19228559777221674  0.1662614494140916  1.0000
  C   C10       1.0  0.7916937535811133  0.6922855978684781  0.3337385503239568  1.0000
  C   C11       1.0  0.7916937531451856  0.807714402420306  0.8337385503704094  1.0000
  C   C12       1.0  0.20830624682961013  0.3077144023240446  0.6662614494540544  1.0000
  C   C13       1.0  0.20782705335906113  0.2503913993411772  0.1453462032274744  1.0000
  C   C14       1.0  0.7921729467780534  0.7503913994374386  0.35465379651057394  1.0000
  C   C15       1.0  0.7921729470516623  0.7496086004311134  0.8546537965505367  1.0000
  C   C16       1.0  0.20782705292313344  0.2496086003348521  0.6453462032739271  1.0000
  C   C17       1.0  0.07785509127730016  0.24631025953547128  0.9288937284370409  1.0000
  C   C18       1.0  0.9221449086974957  0.7463102596317327  0.5711062713874231  1.0000
  C   C19       1.0  0.9221449091334233  0.7536897406570514  0.07110627134097042  1.0000
  C   C20       1.0  0.0778550910036912  0.2536897405607901  0.4288937283970779  1.0000
  C   C21       1.0  0.07135316306031264  0.18810084135143937  0.9420609156279347  1.0000
  C   C22       1.0  0.9286468369144831  0.6881008414477007  0.557939084196529  1.0000
  C   C23       1.0  0.9286468373504108  0.8118991588410834  0.057939084150076335  1.0000
  C   C24       1.0  0.07135316278670377  0.311899158744822  0.442060915587972  1.0000
  C   C25       1.0  0.13694145257060664  0.1608877034280849  0.06244258321424748  1.0000
  C   C26       1.0  0.8630585475665079  0.6608877035243462  0.43755741652380087  1.0000
  C   C27       1.0  0.8630585478401168  0.8391122967644378  0.9375574165637637  1.0000
  C   C28       1.0  0.13694145213467904  0.3391122966681765  0.5624425832607002  1.0000
  C   C29       1.0  0.5889056853065958  0.26672692620011534  0.5099512356316441  1.0000
  C   C30       1.0  0.41109431485916953  0.7667269262963768  0.9900487653396873  1.0000
  C   C31       1.0  0.41109431529509716  0.7332730735721754  0.49004876529323455  1.0000
  C   C32       1.0  0.5889056850329869  0.23327307389614602  0.009951235591681347  1.0000
  C   C33       1.0  0.6660567125617589  0.24210912835287024  0.6416719791992099  1.0000
  C   C34       1.0  0.3339432874130369  0.7421091284491316  0.8583280206252539  1.0000
  C   C35       1.0  0.33394328784896454  0.7578908714194205  0.3583280205788012  1.0000
  C   C36       1.0  0.66605671228815  0.25789087174339115  0.14167197915924715  1.0000
  C   C37       1.0  0.6655397439387174  0.1851014569899657  0.6803158888536608  1.0000
  C   C38       1.0  0.3344602560360784  0.685101456665995  0.819684110970803  1.0000
  C   C39       1.0  0.33446025576246946  0.8148985432025571  0.3196841109308402  1.0000
  C   C40       1.0  0.6655397443746451  0.31489854310629567  0.1803158888072081  1.0000
  C   C41       1.0  0.8030432937739496  0.19520184090472734  0.8830287974619911  1.0000
  C   C42       1.0  0.19695670620084618  0.6952018410009887  0.6169712023624727  1.0000
  C   C43       1.0  0.19695670592723727  0.8047981588675633  0.11697120232250988  1.0000
  C   C44       1.0  0.8030432942098772  0.304798159191534  0.38302879741553847  1.0000
  C   C45       1.0  0.8094891901918047  0.2523091349973578  0.8536449755713877  1.0000
  C   C46       1.0  0.1905108097829912  0.7523091350936192  0.6463550242530761  1.0000
  C   C47       1.0  0.19051080950938226  0.7476908647749329  0.14635502421311328  1.0000
  C   C48       1.0  0.8094891899181957  0.24769086509890356  0.35364497553142493  1.0000
  C   C49       1.0  0.7393872304552839  0.2760470257771028  0.7321156163272862  1.0000
  C   C50       1.0  0.26061276971048153  0.7760470258733642  0.7678843846440452  1.0000
  C   C51       1.0  0.2606127694368726  0.723952973995188  0.2678843846040824  1.0000
  C   C52       1.0  0.7393872308912115  0.22395297431915862  0.2321156162808335  1.0000
  C   C53       1.0  0.11908137400501954  0.47440975798428275  0.13014563693234457  1.0000
  C   C54       1.0  0.8809186261320949  0.974409758080544  0.3698543628057038  1.0000
  C   C55       1.0  0.8809186256961674  0.525590241788008  0.8698543628521566  1.0000
  C   C56       1.0  0.11908137427862846  0.025590242111978644  0.6301456369723074  1.0000
  C   C57       1.0  0.1497436895227681  0.518866038254124  0.05086005448472321  1.0000
  C   C58       1.0  0.8502563106143465  0.018866038157862634  0.4491399452533252  1.0000
  C   C59       1.0  0.8502563108879554  0.48113396151816673  0.9491399452932879  1.0000
  C   C60       1.0  0.14974368908684046  0.981133961614428  0.5508600545311759  1.0000
  C   C61       1.0  0.13614085945825566  0.5741952771994233  0.09302873001442274  1.0000
  C   C62       1.0  0.8638591408698285  0.07419527710316189  0.4069712708704932  1.0000
  C   C63       1.0  0.8638591411434374  0.42580472299309946  0.906971270910456  1.0000
  C   C64       1.0  0.13614085902232803  0.9258047230893608  0.5930287300608754  1.0000
  C   C65       1.0  0.09329258331628122  0.5858110519033868  0.21286299638239758  1.0000
  C   C66       1.0  0.9067074161112968  0.08581105222735746  0.28713700336214065  1.0000
  C   C67       1.0  0.9067074163849057  0.4141889478689039  0.7871370034021034  1.0000
  C   C68       1.0  0.09329258358989014  0.9141889479651653  0.7128629964223604  1.0000
  C   C69       1.0  0.06378140249663243  0.542014867505596  0.29311087095320165  1.0000
  C   C70       1.0  0.9362185976404821  0.0420148674093346  0.2068891287848467  1.0000
  C   C71       1.0  0.936218597914091  0.45798513226669474  0.7068891288248095  1.0000
  C   C72       1.0  0.06378140206070479  0.9579851323629561  0.7931108709996543  1.0000
  C   C73       1.0  0.07693093205546367  0.486852371592543  0.2505373958728239  1.0000
  C   C74       1.0  0.9230690675630839  0.9868523716888044  0.24946260501858192  1.0000
  C   C75       1.0  0.9230690678366928  0.5131476285999798  0.7494626050585448  1.0000
  C   C76       1.0  0.07693093213810302  0.01314762850371834  0.7505373947659192  1.0000
  C   C77       1.0  0.645843573025184  0.0062091062071987745  0.08142159341487862  1.0000
  C   C78       1.0  0.3541564271119304  0.5062091063034602  0.4185784063231697  1.0000
  C   C79       1.0  0.3541564273855393  0.9937908939853239  0.9185784063631325  1.0000
  C   C80       1.0  0.6458435725892565  0.49379089388906255  0.5814215934613314  1.0000
  C   C81       1.0  0.595791820827087  0.013863034056694552  0.19647958370572777  1.0000
  C   C82       1.0  0.40420817950099697  0.5138630337327239  0.30352041717918815  1.0000
  C   C83       1.0  0.404208179774606  0.9861369661358281  0.803520417219151  1.0000
  C   C84       1.0  0.5957918203911594  0.4861369660395668  0.6964795837521804  1.0000
  C   C85       1.0  0.5703772609846088  0.9668816552691772  0.2710607119783303  1.0000
  C   C86       1.0  0.4296227384429692  0.46688165559314804  0.22893928776620795  1.0000
  C   C87       1.0  0.42962273871657813  0.03311834450311338  0.7289392878061708  1.0000
  C   C88       1.0  0.5703772612582177  0.5331183445993747  0.7710607120182931  1.0000
  C   C89       1.0  0.5929737331904533  0.9126645558055825  0.2323292930568276  1.0000
  C   C90       1.0  0.4070262662371246  0.41266455612955316  0.26767070668771065  1.0000
  C   C91       1.0  0.40702626651073354  0.08733544396670824  0.7676707067276735  1.0000
  C   C92       1.0  0.5929737334640622  0.5873354440629696  0.7323292930967904  1.0000
  C   C93       1.0  0.6429350778358578  0.9049916053121542  0.11916364701661916  1.0000
  C   C94       1.0  0.35706492230125664  0.4049916052158928  0.3808363527214292  1.0000
  C   C95       1.0  0.35706492257486566  0.09500839446013652  0.880836352761392  1.0000
  C   C96       1.0  0.6429350773999302  0.5950083945563979  0.6191636470630719  1.0000
  C   C97       1.0  0.6692894929874078  0.9518390794525565  0.046207890343039175  1.0000
  C   C98       1.0  0.33071050714970673  0.45183907935629514  0.4537921093950092  1.0000
  C   C99       1.0  0.33071050671377905  0.0481609207399662  0.9537921094414619  1.0000
  C   C100      1.0  0.6692894932610167  0.5481609208362276  0.546207890383002  1.0000
  N   N1        1.0  0.3445952577179765  0.2019508356078108  0.4027253246378314  1.0000
  N   N2        1.0  0.655404742419138  0.7019508357040722  0.09727467510021695  1.0000
  N   N3        1.0  0.655404742692747  0.7980491641644799  0.5972746751401797  1.0000
  N   N4        1.0  0.34459525728204893  0.29804916406821846  0.9027253246842841  1.0000
  N   N5        1.0  0.14445068814331302  0.2768193395736998  0.029608047668938535  1.0000
  N   N6        1.0  0.8555493119938015  0.7768193396699612  0.4703919520691097  1.0000
  N   N7        1.0  0.8555493122674104  0.7231806606188229  0.9703919521090728  1.0000
  N   N8        1.0  0.14445068770738537  0.22318066052256158  0.5296080477153913  1.0000
  N   N9        1.0  0.49077104599822974  0.24808300294976732  0.5080801316645381  1.0000
  N   N10       1.0  0.5092289539765661  0.7480830030460286  0.9919198681599257  1.0000
  N   N11       1.0  0.5092289537029572  0.7519169972427555  0.49191986811996297  1.0000
  N   N12       1.0  0.49077104643415737  0.25191699714649407  0.00808013161808544  1.0000
  N   N13       1.0  0.7318846456952309  0.1623716289227656  0.7986909629074032  1.0000
  N   N14       1.0  0.26811535427956495  0.662371628598795  0.7013090369170607  1.0000
  N   N15       1.0  0.26811535471549264  0.8376283712697572  0.201309036870608  1.0000
  N   N16       1.0  0.731884645421622  0.3376283711734958  0.2986909628674403  1.0000
  O   O1        1.0  0.4670223255994192  0.20200937477199413  0.2778338991458045  1.0000
  O   O2        1.0  0.5329776745376953  0.7020093748682555  0.22216610059224384  1.0000
  O   O3        1.0  0.5329776748113042  0.7979906254205286  0.7221661006322067  1.0000
  O   O4        1.0  0.46702232516349157  0.29799062532426723  0.7778338991922573  1.0000
  F   F1        1.0  0.16301717037732685  0.6184181227711827  0.01808040441583355  1.0000
  F   F2        1.0  0.8369828299507572  0.1184181226749213  0.4819195964690824  1.0000
  F   F3        1.0  0.8369828295148296  0.38158187742134003  0.981919596515535  1.0000
  F   F4        1.0  0.16301717065093574  0.8815818775176014  0.5180804044557963  1.0000
  F   F5        1.0  0.08008943232682826  0.6395690394543488  0.2525526478827891  1.0000
  F   F6        1.0  0.9199105671007497  0.1395690397783195  0.24744735186174913  1.0000
  F   F7        1.0  0.9199105673743587  0.3604309603179419  0.747447351901712  1.0000
  F   F8        1.0  0.08008943260043719  0.8604309604142032  0.7525526479227519  1.0000
  F   F9        1.0  0.023580780506869136  0.5535925922991419  0.41005516424841154  1.0000
  F   F10       1.0  0.9764192196302454  0.05359259220288061  0.08994483548963682  1.0000
  F   F11       1.0  0.9764192191943177  0.4464074074731487  0.5899448355360896  1.0000
  F   F12       1.0  0.023580780780478042  0.9464074075694101  0.9100551642883744  1.0000
  F   F13       1.0  0.04694578075826158  0.4451491465860577  0.3304522634198687  1.0000
  F   F14       1.0  0.9530542186693163  0.9451491466823191  0.16954773632466952  1.0000
  F   F15       1.0  0.9530542189429252  0.5548508531862331  0.6695477363646323  1.0000
  F   F16       1.0  0.04694578103187049  0.05485085351020371  0.8304522634598315  1.0000
  F   F17       1.0  0.5216180756562591  0.9721449510983547  0.38131328032265693  1.0000
  F   F18       1.0  0.47838192377131883  0.47214495100209336  0.1186867194218813  1.0000
  F   F19       1.0  0.47838192404492774  0.027855049094168  0.6186867194618441  1.0000
  F   F20       1.0  0.521618075929868  0.5278550491904294  0.8813132803626197  1.0000
  F   F21       1.0  0.566531628997347  0.8674611739808517  0.30337594055995126  1.0000
  F   F22       1.0  0.4334683711397675  0.3674611738845903  0.19662405917809708  1.0000
  F   F23       1.0  0.4334683714133764  0.13253882621167107  0.6966240592180599  1.0000
  F   F24       1.0  0.5665316285614194  0.6325388263079325  0.8033759406064039  1.0000
  F   F25       1.0  0.6643792299359772  0.8525257459891675  0.08039403112464233  1.0000
  F   F26       1.0  0.3356207694916008  0.3525257458929061  0.41960596861989596  1.0000
  F   F27       1.0  0.33562076976520966  0.14747425420335528  0.9196059686598586  1.0000
  F   F28       1.0  0.6643792302095861  0.6474742542996166  0.5803940311646051  1.0000
  F   F29       1.0  0.7184072908733822  0.942537030102552  0.9365299971155183  1.0000
  F   F30       1.0  0.28159270910141365  0.44253703000629063  0.5634700027089458  1.0000
  F   F31       1.0  0.2815927097283108  0.05746296966973869  0.0634700038093605  1.0000
  F   F32       1.0  0.7184072905997734  0.5574629697660001  0.43652999707555534  1.0000
  I   I1        1.0  0.13055851011882894  0.3880133595001527  0.07696413537781346  1.0000
  I   I2        1.0  0.869441489308749  0.888013359596414  0.4230358643667248  1.0000
  I   I3        1.0  0.869441489582358  0.6119866406923701  0.9230358644066876  1.0000
  I   I4        1.0  0.13055851039243785  0.11198664059610869  0.5769641354177762  1.0000
  I   I5        1.0  0.2161098455567965  0.507824598046454  0.8693980858916964  1.0000
  I   I6        1.0  0.7838901544179993  0.007824597950192606  0.6306019139327675  1.0000
  I   I7        1.0  0.7838901541443903  0.49217540214606875  0.13060191389280473  1.0000
  I   I8        1.0  0.21610984599272412  0.9921754022423301  0.36939808584524364  1.0000
  I   I9        1.0  0.6851824365380842  0.07269473983578471  0.9503232898005485  1.0000
  I   I10       1.0  0.3148175634367117  0.572694739932046  0.5496767100239155  1.0000
  I   I11       1.0  0.31481756387263926  0.927305260356738  0.049676709977462756  1.0000
  I   I12       1.0  0.6851824362644752  0.42730526026047666  0.4503232897605856  1.0000
  I   I13       1.0  0.5515000082577646  0.09345157425441987  0.2557322529371563  1.0000
  I   I14       1.0  0.44849999136078295  0.5934515743506812  0.2442677479542495  1.0000
  I   I15       1.0  0.4484999916343919  0.9065484255178708  0.7442677479942124  1.0000
  I   I16       1.0  0.5515000083404039  0.4065484254216095  0.7557322518302515  1.0000
