data_image0
_chemical_formula_structural       H56C76N16O4F16I8
_chemical_formula_sum              "H56 C76 N16 O4 F16 I8"
_cell_length_a       13.84986549030359
_cell_length_b       4.474314361100195
_cell_length_c       33.167780307931885
_cell_angle_alpha    90.0
_cell_angle_beta     97.27952198189796
_cell_angle_gamma    90.0

_space_group_name_H-M_alt    "P 1"
_space_group_IT_number       1

loop_
  _space_group_symop_operation_xyz
  'x, y, z'

loop_
  _atom_site_type_symbol
  _atom_site_label
  _atom_site_symmetry_multiplicity
  _atom_site_fract_x
  _atom_site_fract_y
  _atom_site_fract_z
  _atom_site_occupancy
  H   H1        1.0  0.5769326893648505  0.7175905895021892  0.4571820007293866  1.0000
  H   H2        1.0  0.42306731082604265  0.21759058962513486  0.042817999105848215  1.0000
  H   H3        1.0  0.4230673106575105  0.2824094102519195  0.5428179992756014  1.0000
  H   H4        1.0  0.5769326891963185  0.7824094101289739  0.9571820008991397  1.0000
  H   H5        1.0  0.4602645773988371  0.7078710511572558  0.40866590771314226  1.0000
  H   H6        1.0  0.5397354228844753  0.20787105128020136  0.09133409242603976  1.0000
  H   H7        1.0  0.5397354226235239  0.292128948596853  0.5913340922918456  1.0000
  H   H8        1.0  0.4602645771378858  0.7921289484739074  0.9086659075789482  1.0000
  H   H9        1.0  0.65368066579173  0.902481827183706  0.5167916685879245  1.0000
  H   H10       1.0  0.3463193339696798  0.40248182730665166  0.9832083312828694  1.0000
  H   H11       1.0  0.34631933423063116  0.09751817257040273  0.4832083314170636  1.0000
  H   H12       1.0  0.6536806660526813  0.5975181724474571  0.016791668722118454  1.0000
  H   H13       1.0  0.5798806783059144  0.22555992014647808  0.5098195884887919  1.0000
  H   H14       1.0  0.4201193214554954  0.7255599200235325  0.990180411382002  1.0000
  H   H15       1.0  0.42011932171644667  0.7744400796076307  0.490180411516196  1.0000
  H   H16       1.0  0.5798806785668659  0.2744400797305763  0.009819588622986007  1.0000
  H   H17       1.0  0.7557949097091131  0.35710312263511074  0.5528537047680878  1.0000
  H   H18       1.0  0.24420509086672051  0.8571031225121651  0.9471462954065744  1.0000
  H   H19       1.0  0.244205090313248  0.642896877118998  0.44714629523690014  1.0000
  H   H20       1.0  0.7557949091556405  0.14289687724194364  0.05285370459841352  1.0000
  H   H21       1.0  0.9387334925661102  0.7755370096853808  0.48070872420191046  1.0000
  H   H22       1.0  0.061266506995197485  0.2755370098083264  0.019291275937350447  1.0000
  H   H23       1.0  0.06126650745625083  0.22446299006872797  0.5192912758030773  1.0000
  H   H24       1.0  0.9387334923051588  0.7244629921807617  0.9807087240677165  1.0000
  H   H25       1.0  0.8482524426508737  0.5590240645015753  0.41748034815821966  1.0000
  H   H26       1.0  0.1517475568180149  0.059024064624520936  0.08251965167709402  1.0000
  H   H27       1.0  0.15174755737148743  0.4409759352525335  0.5825196518467682  1.0000
  H   H28       1.0  0.8482524431119269  0.9409759351295878  0.9174803480239466  1.0000
  H   H29       1.0  0.7036934351846277  0.23156631304404637  0.42301541766169465  1.0000
  H   H30       1.0  0.2963065650986847  0.7315663129211007  0.07698458247748745  1.0000
  H   H31       1.0  0.2963065648377334  0.7684336867100624  0.5769845823432934  1.0000
  H   H32       1.0  0.7036934349236764  0.26843368683300806  0.9230154175275004  1.0000
  H   H33       1.0  0.3264230081819599  0.19585570196380225  0.4023387876695785  1.0000
  H   H34       1.0  0.6735769920089334  0.6958557018408567  0.09766121216565624  1.0000
  H   H35       1.0  0.6735769918404012  0.8041443000252859  0.5976612123354094  1.0000
  H   H36       1.0  0.3264230080134277  0.3041443001482314  0.9023387878393317  1.0000
  H   H37       1.0  0.32138503114121253  0.8737906536005352  0.3714068860694104  1.0000
  H   H38       1.0  0.6786149690496807  0.3737906537234808  0.12859311376582436  1.0000
  H   H39       1.0  0.6786149688811485  0.1262093461535736  0.6285931139355775  1.0000
  H   H40       1.0  0.32138503097268034  0.626209346030628  0.8714068862391635  1.0000
  H   H41       1.0  0.5457299621039945  0.2364909334935094  0.35845599154412733  1.0000
  H   H42       1.0  0.4542700373648939  0.7364909333705638  0.14154400829118632  1.0000
  H   H43       1.0  0.45427003791836656  0.7635090662605994  0.6415440084608607  1.0000
  H   H44       1.0  0.5457299625650479  0.26350906638354504  0.8584559914098543  1.0000
  H   H45       1.0  0.44246485711802763  0.7604928722896686  0.25936669571848314  1.0000
  H   H46       1.0  0.5575351424432801  0.2604928724126141  0.24063330442077782  1.0000
  H   H47       1.0  0.5575351429043335  0.2395071274644403  0.7406333042865048  1.0000
  H   H48       1.0  0.4424648568570763  0.7395071273414947  0.759366695584289  1.0000
  H   H49       1.0  0.2696591506829955  0.6432618358295877  0.2675112554376051  1.0000
  H   H50       1.0  0.7303408496003168  0.1432618359525333  0.23248874470157693  1.0000
  H   H51       1.0  0.7303408493393656  0.35673816392452107  0.7324887445673829  1.0000
  H   H52       1.0  0.26965915042204414  0.8567381638015754  0.7675112553034109  1.0000
  H   H53       1.0  0.23562739948774236  0.31421200356925877  0.32525569891105227  1.0000
  H   H54       1.0  0.7643725999811462  0.8142120034463131  0.17474430092426138  1.0000
  H   H55       1.0  0.7643726005346188  0.68578799618485  0.6747443010939356  1.0000
  H   H56       1.0  0.23562740004121488  0.18578799630779566  0.8252556990807265  1.0000
  C   C1        1.0  0.9925193011246399  0.9336485979435751  0.3601844304647578  1.0000
  C   C2        1.0  0.007480698436667762  0.4336485980665208  0.13981556967450315  1.0000
  C   C3        1.0  0.00748069889772112  0.0663514018105336  0.6398155695402301  1.0000
  C   C4        1.0  0.9925193015856933  0.566351401687588  0.8601844303304848  1.0000
  C   C5        1.0  0.8917469690699785  0.8986359194956801  0.35262994575569784  1.0000
  C   C6        1.0  0.10825303112091472  0.3986359196186257  0.14737005407953696  1.0000
  C   C7        1.0  0.10825303095238256  0.10136408025842863  0.6473700542492901  1.0000
  C   C8        1.0  0.8917469689014464  0.6013640801354829  0.8526299459254509  1.0000
  C   C9        1.0  0.8451930649061885  0.7174454946457249  0.32186948396320453  1.0000
  C   C10       1.0  0.15480693465511916  0.2174454947686706  0.17813051617605638  1.0000
  C   C11       1.0  0.15480693511617252  0.2825545051083838  0.6781305160417833  1.0000
  C   C12       1.0  0.8451930653672419  0.7825545049854382  0.8218694838289315  1.0000
  C   C13       1.0  0.9045231644894263  0.5688800997375878  0.2974467998651962  1.0000
  C   C14       1.0  0.09547683570146688  0.06888009986053337  0.2025531999700386  1.0000
  C   C15       1.0  0.09547683553293469  0.431119900016521  0.7025532001397917  1.0000
  C   C16       1.0  0.9045231643208942  0.9311199021285547  0.7974468000349494  1.0000
  C   C17       1.0  0.005478321889496996  0.5967504928159447  0.30358291923453257  1.0000
  C   C18       1.0  0.9945216783938153  0.09675049293889033  0.19641708090464952  1.0000
  C   C19       1.0  0.9945216781328641  0.4032495069381641  0.6964170807704554  1.0000
  C   C20       1.0  0.005478321628545693  0.9032495068152184  0.8035829191003384  1.0000
  C   C21       1.0  0.04803350640576412  0.7813469479020617  0.3346441510257856  1.0000
  C   C22       1.0  0.9519664931555436  0.28134694802500726  0.1653558491134754  1.0000
  C   C23       1.0  0.951966493616597  0.21865305185204714  0.6653558489792023  1.0000
  C   C24       1.0  0.048033506866817496  0.7186530517291015  0.8346441508915126  1.0000
  C   C25       1.0  0.5087935048608404  0.09880645710626682  0.43533714600630014  1.0000
  C   C26       1.0  0.49120649533005284  0.5988064569833212  0.06466285382893464  1.0000
  C   C27       1.0  0.49120649516152065  0.9011935426478419  0.5646628539986878  1.0000
  C   C28       1.0  0.5087935046923082  0.4011935427707876  0.9353371461760532  1.0000
  C   C29       1.0  0.6303585791110445  0.08292349174785475  0.49527461466010303  1.0000
  C   C30       1.0  0.36964142045026316  0.5829234916249092  0.004725385479157955  1.0000
  C   C31       1.0  0.3696414209113166  0.9170765080062541  0.5047253853448849  1.0000
  C   C32       1.0  0.6303585795720978  0.4170765081291996  0.9952746145258299  1.0000
  C   C33       1.0  0.7174783216607852  0.2705356289946418  0.4884066467305863  1.0000
  C   C34       1.0  0.2825216786225272  0.7705356288716961  0.011593353408595776  1.0000
  C   C35       1.0  0.2825216783615759  0.729464370759467  0.5115933532744016  1.0000
  C   C36       1.0  0.717478321399834  0.22946437088241256  0.9884066465963922  1.0000
  C   C37       1.0  0.7733852743142879  0.39885942872399716  0.5220782816785191  1.0000
  C   C38       1.0  0.22661472544712197  0.8988594286010515  0.9779217181922748  1.0000
  C   C39       1.0  0.22661472570807328  0.6011405710301116  0.4779217183264689  1.0000
  C   C40       1.0  0.7733852745752391  0.10114057115305722  0.02207828181271314  1.0000
  C   C41       1.0  0.8757911155272846  0.6306244358981944  0.4821327853768209  1.0000
  C   C42       1.0  0.12420888466360851  0.13062443602113993  0.017867214458413872  1.0000
  C   C43       1.0  0.12420888449507633  0.3693755638559144  0.517867214628167  1.0000
  C   C44       1.0  0.8757911153587525  0.8693755659679482  0.9821327855465739  1.0000
  C   C45       1.0  0.8249442481136376  0.5110845808870943  0.4468804679897312  1.0000
  C   C46       1.0  0.17505575216967473  0.011084581010039894  0.05311953214945084  1.0000
  C   C47       1.0  0.1750557519087234  0.4889154188670145  0.5531195320152568  1.0000
  C   C48       1.0  0.8249442478526863  0.988915418744069  0.946880467855537  1.0000
  C   C49       1.0  0.7446205769220672  0.3290446851029901  0.45005890410386024  1.0000
  C   C50       1.0  0.2553794225468214  0.8290446849800445  0.04994109573145344  1.0000
  C   C51       1.0  0.255379423100294  0.6709553146511187  0.5499410959011277  1.0000
  C   C52       1.0  0.7446205774755397  0.17095531477406425  0.9500589042735345  1.0000
  C   C53       1.0  0.36843211856563074  0.06095927286006183  0.38276255741939547  1.0000
  C   C54       1.0  0.6315678816252626  0.5609592727371162  0.11723744241583932  1.0000
  C   C55       1.0  0.6315678814567304  0.939040726894047  0.6172374425855925  1.0000
  C   C56       1.0  0.36843211839709855  0.43904072701699254  0.8827625575891486  1.0000
  C   C57       1.0  0.38815549862282267  0.2521009318895152  0.34712025264507856  1.0000
  C   C58       1.0  0.6118445015680706  0.7521009317665697  0.15287974719015618  1.0000
  C   C59       1.0  0.6118445013995384  0.7478990678645936  0.6528797473599094  1.0000
  C   C60       1.0  0.38815549845429054  0.24789906798753916  0.8471202528148317  1.0000
  C   C61       1.0  0.4820103337485424  0.3249130151960383  0.33948066350137923  1.0000
  C   C62       1.0  0.5179896664423508  0.8249130150730928  0.1605193363338556  1.0000
  C   C63       1.0  0.5179896662738187  0.6750869845580705  0.6605193365036088  1.0000
  C   C64       1.0  0.4820103335800103  0.17508698468101608  0.8394806636711324  1.0000
  C   C65       1.0  0.4249463908970935  0.6158868728486938  0.28393081783514995  1.0000
  C   C66       1.0  0.575053609386219  0.11588687297163935  0.21606918230403216  1.0000
  C   C67       1.0  0.5750536091252677  0.384113126905415  0.7160691821698381  1.0000
  C   C68       1.0  0.4249463906361421  0.8841131267824694  0.7839308177009557  1.0000
  C   C69       1.0  0.3285322393335789  0.5507332858467473  0.2886457892879975  1.0000
  C   C70       1.0  0.6714677609497335  0.05073328596969291  0.21135421085118455  1.0000
  C   C71       1.0  0.6714677606887822  0.44926671390736145  0.7113542107169905  1.0000
  C   C72       1.0  0.3285322390726276  0.9492667137844158  0.7886457891538033  1.0000
  C   C73       1.0  0.31020325058318066  0.36771406906586757  0.3207039637678205  1.0000
  C   C74       1.0  0.6897967489781269  0.8677140689429219  0.17929603637144045  1.0000
  C   C75       1.0  0.6897967494391805  0.6322859306882412  0.6792960362371675  1.0000
  C   C76       1.0  0.310203251044234  0.13228593081118684  0.8207039636335475  1.0000
  N   N1        1.0  0.5790697807695602  0.9456691592317129  0.45933352190978843  1.0000
  N   N2        1.0  0.4209302194213331  0.4456691593546586  0.040666477925446365  1.0000
  N   N3        1.0  0.4209302192528009  0.05433084052239582  0.5406664780951995  1.0000
  N   N4        1.0  0.579069780601028  0.5543308403994501  0.9593335220795415  1.0000
  N   N5        1.0  0.8504476089609554  0.5747438942505751  0.5191597597025345  1.0000
  N   N6        1.0  0.14955239080045452  0.07474389437352076  0.9808402401682594  1.0000
  N   N7        1.0  0.14955239096898673  0.4252561055035336  0.4808402399985063  1.0000
  N   N8        1.0  0.8504476092219065  0.925256105380588  0.0191597598367285  1.0000
  N   N9        1.0  0.4534997531766472  0.9357510675603248  0.4065342370392095  1.0000
  N   N10       1.0  0.5465002471066651  0.43575106768327043  0.09346576309997254  1.0000
  N   N11       1.0  0.5465002468457139  0.06424893219378391  0.5934657629657784  1.0000
  N   N12       1.0  0.45349975291569594  0.5642489320708383  0.9065342369050154  1.0000
  N   N13       1.0  0.500082567339231  0.5042114317254341  0.3088316334133065  1.0000
  N   N14       1.0  0.49991743285166224  0.004211431848379694  0.19116836642192833  1.0000
  N   N15       1.0  0.49991743268313  0.4957885680286747  0.6911683665916815  1.0000
  N   N16       1.0  0.5000825671706989  0.995788567905729  0.8088316335830597  1.0000
  O   O1        1.0  0.49621798641307696  0.37545169704770814  0.43970976701153824  1.0000
  O   O2        1.0  0.5037820137778163  0.8754516969247624  0.06029023282369657  1.0000
  O   O3        1.0  0.5037820136092842  0.6245483027064006  0.5602902329934497  1.0000
  O   O4        1.0  0.4962179862445448  0.12454830282934626  0.9397097671812914  1.0000
  F   F1        1.0  0.835767074265549  0.0443314134841493  0.37737904587286464  1.0000
  F   F2        1.0  0.16423292592534436  0.5443314133612036  0.12262095396237016  1.0000
  F   F3        1.0  0.1642329257568122  0.9556685862699594  0.6226209541321234  1.0000
  F   F4        1.0  0.8357670740970168  0.4556685863929051  0.8773790460426177  1.0000
  F   F5        1.0  0.865264506618328  0.3881205833675468  0.26693702389539603  1.0000
  F   F6        1.0  0.1347354928505606  0.8881205832446012  0.2330629759399177  1.0000
  F   F7        1.0  0.13473549340403312  0.611879416386562  0.7330629761095919  1.0000
  F   F8        1.0  0.8652645071718005  0.11187941650950758  0.7669370240650701  1.0000
  F   F9        1.0  0.06150760292268273  0.440232603485567  0.28045950029483735  1.0000
  F   F10       1.0  0.9384923972682107  0.9402326033626214  0.21954049954039742  1.0000
  F   F11       1.0  0.9384923970996784  0.5597673962685418  0.7195404997101505  1.0000
  F   F12       1.0  0.061507602754150535  0.05976739639148739  0.7804595004645904  1.0000
  F   F13       1.0  0.14669685773005817  0.8034352818955852  0.3401656995431218  1.0000
  F   F14       1.0  0.8533031418312496  0.3034352820185308  0.15983430059613915  1.0000
  F   F15       1.0  0.8533031422923029  0.19656471785852359  0.6598343004618661  1.0000
  F   F16       1.0  0.14669685819111156  0.696564717735578  0.8401656994088488  1.0000
  I   I1        1.0  0.060449292130982345  0.16525120059248397  0.4123300231410304  1.0000
  I   I2        1.0  0.9395507080599109  0.6652512004695383  0.08766997669420436  1.0000
  I   I3        1.0  0.9395507078913787  0.8347487991616248  0.5876699768639575  1.0000
  I   I4        1.0  0.06044929187003103  0.3347487992845704  0.9123300230068363  1.0000
  I   I5        1.0  0.6922235748436306  0.6435418385068452  0.31420882061222494  1.0000
  I   I6        1.0  0.30777642543968187  0.1435418386297909  0.18579117952695715  1.0000
  I   I7        1.0  0.30777642517873055  0.35645816124726354  0.685791179392763  1.0000
  I   I8        1.0  0.6922235745826791  0.8564581611243178  0.8142088204780308  1.0000
