data_image0
_chemical_formula_structural       H36C48N4O8Cl4I4
_chemical_formula_sum              "H36 C48 N4 O8 Cl4 I4"
_cell_length_a       12.409623672306637
_cell_length_b       8.372538088220955
_cell_length_c       12.57192013115371
_cell_angle_alpha    90.0
_cell_angle_beta     108.49861342492437
_cell_angle_gamma    90.0

_space_group_name_H-M_alt    "P 1"
_space_group_IT_number       1

loop_
  _space_group_symop_operation_xyz
  'x, y, z'

loop_
  _atom_site_type_symbol
  _atom_site_label
  _atom_site_symmetry_multiplicity
  _atom_site_fract_x
  _atom_site_fract_y
  _atom_site_fract_z
  _atom_site_occupancy
  H   H1        1.0  0.561750463957262  0.3286172843896402  0.49644914914204114  1.0000
  H   H2        1.0  0.4382495359053645  0.8286172838986926  0.0035508507357478614  1.0000
  H   H3        1.0  0.43824953594192534  0.6713827158228456  0.5035508506899828  1.0000
  H   H4        1.0  0.5617504639938229  0.17138271631379315  0.996449149096276  1.0000
  H   H5        1.0  0.8702410595866155  0.6328676924688557  0.6769858265011416  1.0000
  H   H6        1.0  0.129758940617196  0.1328676917654223  0.8230141741238769  1.0000
  H   H7        1.0  0.1297589405806351  0.3671323077436301  0.323014174169642  1.0000
  H   H8        1.0  0.8702410592819914  0.8671323072526825  0.17698582570814697  1.0000
  H   H9        1.0  0.7130058094625604  0.4922109337188653  0.33373374502634956  1.0000
  H   H10       1.0  0.28699419040006596  0.9922109332279178  0.1662662548514394  1.0000
  H   H11       1.0  0.2869941904366269  0.5077890664936204  0.6662662548056745  1.0000
  H   H12       1.0  0.7130058094991214  0.0077890669845680095  0.8337337449805845  1.0000
  H   H13       1.0  0.8632660179435445  0.6375974410328797  0.2796837842309759  1.0000
  H   H14       1.0  0.13673398191908184  0.1375974403294464  0.22031621564681309  1.0000
  H   H15       1.0  0.1367339819556428  0.36240255917960607  0.7203162156010481  1.0000
  H   H16       1.0  0.8632660179801056  0.8624025586886584  0.7796837841852109  1.0000
  H   H17       1.0  0.016658864485499185  0.7808070409613498  0.42359099437671405  1.0000
  H   H18       1.0  0.9833411353771273  0.28080704145229735  0.07640900550107496  1.0000
  H   H19       1.0  0.9833411354136882  0.21919295925113605  0.5764090054553099  1.0000
  H   H20       1.0  0.016658864522060085  0.7191929587601884  0.9235909943309489  1.0000
  H   H21       1.0  0.3798143840606884  0.17003999086046664  0.37688021255069  1.0000
  H   H22       1.0  0.620185615801938  0.670039990369519  0.123119787327099  1.0000
  H   H23       1.0  0.6201856158384991  0.8299600093520192  0.6231197872813341  1.0000
  H   H24       1.0  0.3798143840972494  0.3299600086485858  0.876880212504925  1.0000
  H   H25       1.0  0.29815790518694485  0.9409128948703208  0.6491907845694918  1.0000
  H   H26       1.0  0.7018420947488033  0.4409128953612684  0.8508092152167671  1.0000
  H   H27       1.0  0.7018420947122426  0.059087105342164964  0.35080921526253217  1.0000
  H   H28       1.0  0.29815790515038393  0.5590871048512174  0.14919078461525678  1.0000
  H   H29       1.0  0.5819749751901194  0.26657919933980934  0.7018835566393962  1.0000
  H   H30       1.0  0.41802502474562897  0.7665791988488617  0.7981164431468629  1.0000
  H   H31       1.0  0.418025024709068  0.7334208008726765  0.2981164431926278  1.0000
  H   H32       1.0  0.5819749751535584  0.2334208001692431  0.20188355668516114  1.0000
  H   H33       1.0  0.4646380194865722  0.08282515083157414  0.7827093912854642  1.0000
  H   H34       1.0  0.5353619804491762  0.5828251503406267  0.7172906085007948  1.0000
  H   H35       1.0  0.5353619804126152  0.9171748493809116  0.21729060854655977  1.0000
  H   H36       1.0  0.4646380194500112  0.41717484987185927  0.2827093913312292  1.0000
  C   C1        1.0  0.9529022001696487  0.7157234457291438  0.5590853869183833  1.0000
  C   C2        1.0  0.047097799766099735  0.21572344502571045  0.9409146128678759  1.0000
  C   C3        1.0  0.047097799729538745  0.284276554483342  0.44091461291364076  1.0000
  C   C4        1.0  0.9529022001330877  0.7842765539923944  0.05908538696414822  1.0000
  C   C5        1.0  0.8694777205799531  0.6352786985207003  0.5902265487919873  1.0000
  C   C6        1.0  0.1305222793557953  0.13527869901164785  0.9097734509942718  1.0000
  C   C7        1.0  0.13052227931923435  0.36472130049740453  0.40977345104003676  1.0000
  C   C8        1.0  0.869477720543392  0.864721301200838  0.09022654883775229  1.0000
  C   C9        1.0  0.6959860247892486  0.4669787522974143  0.5449607178349211  1.0000
  C   C10       1.0  0.3040139751464996  0.9669787518064669  0.955039281951338  1.0000
  C   C11       1.0  0.30401397510993866  0.5330212479150715  0.4550392819971029  1.0000
  C   C12       1.0  0.6959860247526878  0.033021247211638106  0.044960717880686035  1.0000
  C   C13       1.0  0.7827415768050408  0.5546075575974683  0.5086055187739028  1.0000
  C   C14       1.0  0.21725842313070756  0.05460755808841586  0.9913944810123563  1.0000
  C   C15       1.0  0.2172584230941466  0.4453924414206366  0.4913944810581212  1.0000
  C   C16       1.0  0.7827415767684799  0.9453924421240699  0.008605518819667774  1.0000
  C   C17       1.0  0.7800237411322043  0.5563567846353965  0.3963861587233672  1.0000
  C   C18       1.0  0.21997625873042212  0.05635678393196313  0.10361384115442178  1.0000
  C   C19       1.0  0.21997625876698304  0.4436432155770893  0.6036138411086568  1.0000
  C   C20       1.0  0.7800237411687653  0.9436432150861418  0.8963861586776022  1.0000
  C   C21       1.0  0.8638728733391652  0.6382539552155663  0.3665104996265623  1.0000
  C   C22       1.0  0.13612712652346132  0.13825395570651383  0.13348950025122666  1.0000
  C   C23       1.0  0.13612712656002224  0.3617460438025386  0.6334895002054617  1.0000
  C   C24       1.0  0.8638728733757263  0.8617460445059719  0.8665104995807974  1.0000
  C   C25       1.0  0.9508545587561497  0.7181242983485281  0.44730784582007566  1.0000
  C   C26       1.0  0.049145441912816785  0.2181242988394757  0.052692154059316564  1.0000
  C   C27       1.0  0.04914544114303767  0.28187570066957673  0.5526921540119484  1.0000
  C   C28       1.0  0.9508545587927107  0.7818757013730101  0.9473078457743108  1.0000
  C   C29       1.0  0.3286354651623014  0.04370194392006018  0.5039278529321428  1.0000
  C   C30       1.0  0.671364534773447  0.5437019434291126  0.9960721468541162  1.0000
  C   C31       1.0  0.671364534736886  0.9562980562924256  0.49607214689988105  1.0000
  C   C32       1.0  0.3286354651257405  0.4562980567833732  0.003927852977907888  1.0000
  C   C33       1.0  0.3963687406130328  0.14812765578753262  0.4662503582848071  1.0000
  C   C34       1.0  0.603631259517657  0.6481276552965851  0.03374964243174142  1.0000
  C   C35       1.0  0.6036312595542178  0.8518723444249532  0.5337496423859764  1.0000
  C   C36       1.0  0.3963687406495937  0.3518723437215198  0.9662503582390422  1.0000
  C   C37       1.0  0.35151041283607887  0.019907444820644136  0.6187161425221374  1.0000
  C   C38       1.0  0.6484895873677327  0.5199074443296966  0.8812838581028812  1.0000
  C   C39       1.0  0.6484895870631086  0.9800925553918416  0.3812838573098867  1.0000
  C   C40       1.0  0.3515104127995179  0.48009255588278926  0.1187161425679023  1.0000
  C   C41       1.0  0.5083439697596099  0.20123347451477566  0.6492432745325866  1.0000
  C   C42       1.0  0.4916560301761384  0.7012334740238281  0.8507567252536724  1.0000
  C   C43       1.0  0.4916560301395774  0.7987665256977101  0.3507567252994373  1.0000
  C   C44       1.0  0.5083439697230491  0.29876652499427675  0.14924327457835157  1.0000
  C   C45       1.0  0.44340006102052065  0.10024227912211692  0.6925731594737369  1.0000
  C   C46       1.0  0.5565999391832909  0.6002422798255502  0.8074268411512816  1.0000
  C   C47       1.0  0.55659993995307  0.8997577210903689  0.30742684119864977  1.0000
  C   C48       1.0  0.4434000607158966  0.3997577203869355  0.19257315868074246  1.0000
  N   N1        1.0  0.4841701525590095  0.22432174213005923  0.5383207912416761  1.0000
  N   N2        1.0  0.515829847644802  0.7243217428334926  0.9616792093833425  1.0000
  N   N3        1.0  0.515829847608241  0.7756782580824265  0.46167920942910745  1.0000
  N   N4        1.0  0.4841701525224486  0.2756782573789932  0.038320791287441085  1.0000
  O   O1        1.0  0.6171382786148591  0.3945672859521088  0.4625378047997224  1.0000
  O   O2        1.0  0.3828617220541073  0.8945672854611613  0.03746219507966979  1.0000
  O   O3        1.0  0.3828617212843281  0.6054327142603769  0.5374621950323015  1.0000
  O   O4        1.0  0.6171382786514201  0.10543271475132454  0.9625378047539573  1.0000
  O   O5        1.0  0.6984572279381233  0.4628101525690832  0.6445280945190056  1.0000
  O   O6        1.0  0.301542771997625  0.9628101520781356  0.8554719052672534  1.0000
  O   O7        1.0  0.3015427719610641  0.5371898476434026  0.3554719053130183  1.0000
  O   O8        1.0  0.6984572279015623  0.037189848134350195  0.1445280945647707  1.0000
  Cl  Cl1       1.0  0.2202446255385359  0.9432461706099062  0.4069924751360038  1.0000
  Cl  Cl2       1.0  0.7797553743240906  0.44324616990647275  0.09300752474178518  1.0000
  Cl  Cl3       1.0  0.7797553743606516  0.056753829602579645  0.5930075246960202  1.0000
  Cl  Cl4       1.0  0.22024462584316  0.5567538291116321  0.9069924759289983  1.0000
  I   I1        1.0  0.08512074877433835  0.8324032660782894  0.6820656957537713  1.0000
  I   I2        1.0  0.91487925116141  0.332403266569237  0.8179343040324877  1.0000
  I   I3        1.0  0.9148792511248491  0.16759673413419637  0.3179343040782526  1.0000
  I   I4        1.0  0.08512074873777745  0.6675967336432488  0.18206569579953633  1.0000
