data_image0
_chemical_formula_structural       H36C48N4O8Cl4I4
_chemical_formula_sum              "H36 C48 N4 O8 Cl4 I4"
_cell_length_a       11.770364438519634
_cell_length_b       8.31439503653897
_cell_length_c       13.573780407423381
_cell_angle_alpha    90.0
_cell_angle_beta     111.8769907406022
_cell_angle_gamma    90.0

_space_group_name_H-M_alt    "P 1"
_space_group_IT_number       1

loop_
  _space_group_symop_operation_xyz
  'x, y, z'

loop_
  _atom_site_type_symbol
  _atom_site_label
  _atom_site_symmetry_multiplicity
  _atom_site_fract_x
  _atom_site_fract_y
  _atom_site_fract_z
  _atom_site_occupancy
  H   H1        1.0  0.7959040903403627  0.5569764041338734  0.7075948730076894  1.0000
  H   H2        1.0  0.2040959098347878  0.056976405128471866  0.7924051271631668  1.0000
  H   H3        1.0  0.2040959100700155  0.44302359507966294  0.2924051273359816  1.0000
  H   H4        1.0  0.7959040905755904  0.9430235952877978  0.2075948731805044  1.0000
  H   H5        1.0  0.636587885740653  0.5685908149930665  0.3802297506237846  1.0000
  H   H6        1.0  0.3634121145716752  0.0685908147849317  0.11977024909884995  1.0000
  H   H7        1.0  0.3634121146697254  0.43140918542320306  0.6197702497198866  1.0000
  H   H8        1.0  0.6365878855054251  0.9314091856313379  0.8802297504509696  1.0000
  H   H9        1.0  0.6353293439341723  0.7398464137158235  0.7269986147397792  1.0000
  H   H10       1.0  0.36467065590770037  0.23984641350768865  0.7730013846372258  1.0000
  H   H11       1.0  0.36467065614292815  0.26015358670044614  0.27300138481004055  1.0000
  H   H12       1.0  0.6353293441694  0.7601535857058477  0.226998614912594  1.0000
  H   H13       1.0  0.4672721552766732  0.8394040527698096  0.5624353903735154  1.0000
  H   H14       1.0  0.5327278448984774  0.3394040525616747  0.9375646097973409  1.0000
  H   H15       1.0  0.5327278448004272  0.1605959476464601  0.4375646091763043  1.0000
  H   H16       1.0  0.4672721546591959  0.6605959466518616  0.062435390538999797  1.0000
  H   H17       1.0  0.9239523802598425  0.7820326988825201  0.41525255843843145  1.0000
  H   H18       1.0  0.07604761953305841  0.2820326986743853  0.08474744207072414  1.0000
  H   H19       1.0  0.07604761929783066  0.21796730153374952  0.5847474418979093  1.0000
  H   H20       1.0  0.9239523808773198  0.7179673017418843  0.915252558272947  1.0000
  H   H21       1.0  0.10900020695250953  0.7414842189848967  0.7540617665644395  1.0000
  H   H22       1.0  0.890999793222641  0.2414842187767619  0.7459382336064169  1.0000
  H   H23       1.0  0.8909997934578688  0.2585157814313729  0.2459382337792318  1.0000
  H   H24       1.0  0.10900020718773726  0.7585157804367744  0.2540617667372542  1.0000
  H   H25       1.0  0.7882567754811418  0.04199167208987155  0.6237034377717473  1.0000
  H   H26       1.0  0.21174322469400877  0.541991671095273  0.876296562399109  1.0000
  H   H27       1.0  0.21174322492923653  0.958008328326398  0.37629656257192384  1.0000
  H   H28       1.0  0.7882567748636643  0.45800832811826325  0.12370343793723176  1.0000
  H   H29       1.0  0.9565351339837148  0.9280987655852563  0.7807147622223644  1.0000
  H   H30       1.0  0.04346486585815781  0.4280987653771215  0.7192852371546404  1.0000
  H   H31       1.0  0.04346486609338557  0.07190123362827998  0.2192852373274554  1.0000
  H   H32       1.0  0.9565351342189425  0.5719012338364149  0.2807147623951791  1.0000
  H   H33       1.0  0.18090685352854313  0.5459813792886197  0.4660985581654359  1.0000
  H   H34       1.0  0.819093147117063  0.045981379080484844  0.03390144235105018  1.0000
  H   H35       1.0  0.8190931468818352  0.45401861992491666  0.5339014421782353  1.0000
  H   H36       1.0  0.1809068532933154  0.9540186201330515  0.966098557992621  1.0000
  C   C1        1.0  0.7209741776086117  0.6032717507355703  0.6385983139118898  1.0000
  C   C2        1.0  0.2790258225665388  0.10327175052743544  0.8614016862589664  1.0000
  C   C3        1.0  0.27902582280176663  0.39672824968069936  0.3614016864317814  1.0000
  C   C4        1.0  0.7209741778438394  0.8967282486861009  0.1385983140847047  1.0000
  C   C5        1.0  0.6307250592718436  0.6100063224938191  0.45449889812142447  1.0000
  C   C6        1.0  0.3692749410404845  0.11000632228568433  0.0455011016012101  1.0000
  C   C7        1.0  0.36927494080525675  0.3899936779224505  0.5455011014283953  1.0000
  C   C8        1.0  0.6307250593698939  0.889993676927852  0.954498898742461  1.0000
  C   C9        1.0  0.5384009995040663  0.7120851143085147  0.4583857965280262  1.0000
  C   C10       1.0  0.46159900028883477  0.21208511530311325  0.04161420398112935  1.0000
  C   C11       1.0  0.46159900005360704  0.28791488490502154  0.5416142038083145  1.0000
  C   C12       1.0  0.5384010001215436  0.7879148851131563  0.9583857963625418  1.0000
  C   C13       1.0  0.6317378936578357  0.7045715802840351  0.6487009328347201  1.0000
  C   C14       1.0  0.3682621065173148  0.20457158007590032  0.8512990673361361  1.0000
  C   C15       1.0  0.36826210675254256  0.29542842013223447  0.35129906750895107  1.0000
  C   C16       1.0  0.6317378938930636  0.7954284191376361  0.14870093300753498  1.0000
  C   C17       1.0  0.5384346006933847  0.7598985701586332  0.5571544083524287  1.0000
  C   C18       1.0  0.46156539948176584  0.25989856995049837  0.9428455918184275  1.0000
  C   C19       1.0  0.46156539938371577  0.24010143025763642  0.442845591197391  1.0000
  C   C20       1.0  0.5384346000759074  0.7401014304657713  0.05715440851791307  1.0000
  C   C21       1.0  0.9309926288472399  0.8139488068896353  0.4950811729711923  1.0000
  C   C22       1.0  0.06900737179836612  0.31394880668150044  0.004918827545293761  1.0000
  C   C23       1.0  0.06900737156313838  0.18605119232390102  0.504918827372479  1.0000
  C   C24       1.0  0.9309926286120123  0.6860511925320358  0.9950811727983773  1.0000
  C   C25       1.0  0.034717683736066124  0.7915526627105738  0.6862940807940026  1.0000
  C   C26       1.0  0.9652823164390845  0.2915526637051723  0.8137059193768538  1.0000
  C   C27       1.0  0.9652823163410343  0.20844733650296252  0.31370591875581727  1.0000
  C   C28       1.0  0.03471768397129383  0.7084473367110974  0.1862940809668173  1.0000
  C   C29       1.0  0.8554639506177345  0.9606204281730564  0.6133487429754235  1.0000
  C   C30       1.0  0.14453604955741606  0.4606204291676549  0.8866512571954329  1.0000
  C   C31       1.0  0.14453604979264378  0.03937957104047992  0.3866512573682477  1.0000
  C   C32       1.0  0.8554639505196844  0.5393795712486147  0.11334874235438686  1.0000
  C   C33       1.0  0.11860989202896557  0.6407930879620322  0.5690784102956717  1.0000
  C   C34       1.0  0.881390108146185  0.1407930877538974  0.9309215898751845  1.0000
  C   C35       1.0  0.8813901083814127  0.3592069124542374  0.4309215900479993  1.0000
  C   C36       1.0  0.11860989226419337  0.8592069126623721  0.06907841046848667  1.0000
  C   C37       1.0  0.025638555627791597  0.7504043448237663  0.5834621781808897  1.0000
  C   C38       1.0  0.974361444547359  0.2504043458183648  0.9165378219899665  1.0000
  C   C39       1.0  0.9743614444493088  0.24959565438977  0.41653782136893003  1.0000
  C   C40       1.0  0.025638555863019313  0.7495956545979048  0.08346217835370454  1.0000
  C   C41       1.0  0.8472307474512191  0.9182730970139434  0.5115290821008365  1.0000
  C   C42       1.0  0.1527692523906537  0.4182730968058087  0.9884709172761684  1.0000
  C   C43       1.0  0.1527692526258814  0.08172690219959278  0.4884709174489833  1.0000
  C   C44       1.0  0.8472307476864469  0.5817269024077275  0.011529082273651263  1.0000
  C   C45       1.0  0.949945434560106  0.8961744705723877  0.7009241504200868  1.0000
  C   C46       1.0  0.05005456528176672  0.39617447036425296  0.799075848956918  1.0000
  C   C47       1.0  0.05005456551699444  0.10382552984388185  0.2990758491297328  1.0000
  C   C48       1.0  0.9499454347953337  0.6038255288492833  0.20092415059290172  1.0000
  N   N1        1.0  0.7197174316878312  0.5575597322026848  0.5434021828936763  1.0000
  N   N2        1.0  0.2802825673013364  0.057559731994550015  0.9565978164759981  1.0000
  N   N3        1.0  0.28028256753656416  0.4424402682135848  0.456597816648813  1.0000
  N   N4        1.0  0.719717431923059  0.9424402684217197  0.04340218306649116  1.0000
  O   O1        1.0  0.19851147464508992  0.5725189648892971  0.6450624963329384  1.0000
  O   O2        1.0  0.8014885251967828  0.07251896468116222  0.8549375030440663  1.0000
  O   O3        1.0  0.8014885254320107  0.4274810355269726  0.3549375032168813  1.0000
  O   O4        1.0  0.19851147488031765  0.9274810357351074  0.14506249650575329  1.0000
  O   O5        1.0  0.10857553035313483  0.6230308299323156  0.4694368959994612  1.0000
  O   O6        1.0  0.8914244691064882  0.12303082972418079  0.030563103715842876  1.0000
  O   O7        1.0  0.8914244688712604  0.376969170483954  0.5305631035430279  1.0000
  O   O8        1.0  0.10857553097061215  0.8769691706920888  0.9694368958339769  1.0000
  Cl  Cl1       1.0  0.7306631138092002  0.9995985532892889  0.40246311153623876  1.0000
  Cl  Cl2       1.0  0.26933688598370087  0.49959855428388755  0.09753688897291685  1.0000
  Cl  Cl3       1.0  0.2693368866011782  0.00040144592424723376  0.5975368888074325  1.0000
  Cl  Cl4       1.0  0.7306631135739724  0.500401446132382  0.9024631113634239  1.0000
  I   I1        1.0  0.4021858018318836  0.7958611216955719  0.3178987843865332  1.0000
  I   I2        1.0  0.5978141984804445  0.2958611214874371  0.18210121533610135  1.0000
  I   I3        1.0  0.5978141985784947  0.20413887872069772  0.682101215957138  1.0000
  I   I4        1.0  0.40218580159665585  0.7041388777260993  0.8178987842137183  1.0000
