data_image0
_chemical_formula_structural       H36C48N4O8Br4I4
_chemical_formula_sum              "H36 C48 N4 O8 Br4 I4"
_cell_length_a       12.418374995205813
_cell_length_b       8.515821978764949
_cell_length_c       12.632569528836068
_cell_angle_alpha    90.0
_cell_angle_beta     107.50874122662186
_cell_angle_gamma    90.0

_space_group_name_H-M_alt    "P 1"
_space_group_IT_number       1

loop_
  _space_group_symop_operation_xyz
  'x, y, z'

loop_
  _atom_site_type_symbol
  _atom_site_label
  _atom_site_symmetry_multiplicity
  _atom_site_fract_x
  _atom_site_fract_y
  _atom_site_fract_z
  _atom_site_occupancy
  H   H1        1.0  0.5649304091921971  0.3344297904655163  0.5017586623638269  1.0000
  H   H2        1.0  0.4350695904688929  0.8344297905380313  0.9982413379962631  1.0000
  H   H3        1.0  0.43506959008254426  0.6655702085052291  0.49824133758221845  1.0000
  H   H4        1.0  0.5649304096118336  0.16557020843271403  0.0017586619521679208  1.0000
  H   H5        1.0  0.8747625190310812  0.6242473308220772  0.6801037580908248  1.0000
  H   H6        1.0  0.1252374811842772  0.12424733074956221  0.8198962414415939  1.0000
  H   H7        1.0  0.12523748104964516  0.37575266932295287  0.3198962418576062  1.0000
  H   H8        1.0  0.8747625188964492  0.8757526693954679  0.1801037585068372  1.0000
  H   H9        1.0  0.7134188719692134  0.5046185465966292  0.3385856845982278  1.0000
  H   H10       1.0  0.28658112797688107  0.00461854652411418  0.16141431576621548  1.0000
  H   H11       1.0  0.28658112811151304  0.4953814535484009  0.6614143153502032  1.0000
  H   H12       1.0  0.713418872355562  0.9953814536209159  0.8385856850122725  1.0000
  H   H13       1.0  0.016109795658758218  0.7864301645454642  0.4261540264287914  1.0000
  H   H14       1.0  0.9838902042873362  0.2864301644729492  0.07384597393565191  1.0000
  H   H15       1.0  0.9838902044219683  0.21356983559956585  0.5738459735196396  1.0000
  H   H16       1.0  0.0161097957933902  0.713569835672081  0.9261540260127791  1.0000
  H   H17       1.0  0.8612473644561669  0.6528595318060318  0.28337832072156344  1.0000
  H   H18       1.0  0.13875263523821096  0.15285953173351674  0.2166216788128229  1.0000
  H   H19       1.0  0.13875263562455956  0.3471404683389983  0.7166216792268676  1.0000
  H   H20       1.0  0.8612473648425155  0.8471404684115134  0.7833783211356081  1.0000
  H   H21       1.0  0.387821803312767  0.17783144290430916  0.38389173179360725  1.0000
  H   H22       1.0  0.6121781966333275  0.6778314429768242  0.11610826857083613  1.0000
  H   H23       1.0  0.6121781959619744  0.8221685560664362  0.6161082681524382  1.0000
  H   H24       1.0  0.38782180344739897  0.32216855599392114  0.8838917313775949  1.0000
  H   H25       1.0  0.30212024541908683  0.9460448445363595  0.6519968750049097  1.0000
  H   H26       1.0  0.6978797550479882  0.44604484446384446  0.8480031253575662  1.0000
  H   H27       1.0  0.6978797546616397  0.0539551556086706  0.3480031249435215  1.0000
  H   H28       1.0  0.30212024503273816  0.5539551556811856  0.1519968745908649  1.0000
  H   H29       1.0  0.46513385463190793  0.08554036730881105  0.7847192773905434  1.0000
  H   H30       1.0  0.5348661450291821  0.5855403673813262  0.7152807229695466  1.0000
  H   H31       1.0  0.5348661446428334  0.914459632836219  0.21528072255550204  1.0000
  H   H32       1.0  0.4651338550515444  0.41445963276370396  0.28471927697888433  1.0000
  H   H33       1.0  0.5829570095809335  0.2696178942825895  0.7058115854579515  1.0000
  H   H34       1.0  0.41704299063442496  0.7696178943551045  0.7941884140744672  1.0000
  H   H35       1.0  0.4170429904997929  0.7303821058624407  0.29418841449047944  1.0000
  H   H36       1.0  0.5829570094463015  0.2303821057899256  0.20581158587396392  1.0000
  C   C1        1.0  0.7850669749552432  0.5568411836020705  0.512607655390519  1.0000
  C   C2        1.0  0.2149330244541301  0.05684118352955539  0.987392344139514  1.0000
  C   C3        1.0  0.21493302431949812  0.4431588165429597  0.48739234455552644  1.0000
  C   C4        1.0  0.7850669756265964  0.9431588166154747  0.012607655808916903  1.0000
  C   C5        1.0  0.9549707131109668  0.713764917251304  0.5617928167267281  1.0000
  C   C6        1.0  0.04502928735610824  0.21376491717878893  0.9382071836357476  1.0000
  C   C7        1.0  0.04502928696975957  0.2862350828937261  0.4382071832217029  1.0000
  C   C8        1.0  0.9549707127246182  0.7862350829662412  0.0617928163126834  1.0000
  C   C9        1.0  0.8726043334470859  0.6320548695618247  0.5935104755586137  1.0000
  C   C10       1.0  0.12739566621400406  0.13205486948930964  0.9064895248014764  1.0000
  C   C11       1.0  0.12739566582765544  0.36794512940892066  0.4064895243874317  1.0000
  C   C12       1.0  0.8726043338667224  0.8679451294814358  0.09351047514695467  1.0000
  C   C13       1.0  0.6987156244798126  0.4690035547900501  0.5490807662911424  1.0000
  C   C14       1.0  0.30128437518127743  0.9690035548625652  0.9509192340689477  1.0000
  C   C15       1.0  0.3012843758526305  0.5309964453549799  0.4509192344873456  1.0000
  C   C16       1.0  0.698715624899449  0.030996445282464927  0.04908076587948336  1.0000
  C   C17       1.0  0.7808790621882322  0.5648756951466534  0.40064467203850707  1.0000
  C   C18       1.0  0.21912093750614564  0.06487569507413832  0.09935532749587932  1.0000
  C   C19       1.0  0.21912093789249432  0.4351243049983768  0.5993553279099241  1.0000
  C   C20       1.0  0.7808790625745808  0.9351243050708917  0.9006446724525519  1.0000
  C   C21       1.0  0.9511920363994714  0.7226898360893822  0.45025780610594807  1.0000
  C   C22       1.0  0.048807963294906366  0.22268983601686718  0.0497421934284383  1.0000
  C   C23       1.0  0.04880796368125503  0.27731016405564785  0.549742193842483  1.0000
  C   C24       1.0  0.9511920367858201  0.7773101629538782  0.9502578065199928  1.0000
  C   C25       1.0  0.8635740703454192  0.6480273042063224  0.3701995682209931  1.0000
  C   C26       1.0  0.13642592934895864  0.1480273041338073  0.1298004313133933  1.0000
  C   C27       1.0  0.13642592973530732  0.3519726959387078  0.629800431727438  1.0000
  C   C28       1.0  0.8635740707317677  0.8519726960112228  0.8701995686350377  1.0000
  C   C29       1.0  0.33460649742681536  0.050451881341736386  0.508623620034454  1.0000
  C   C30       1.0  0.6653935027885431  0.5504518814142515  0.9913763794979648  1.0000
  C   C31       1.0  0.6653935026539112  0.9495481188032937  0.49137637991397703  1.0000
  C   C32       1.0  0.3346064972921834  0.44954811873077866  0.008623620450466312  1.0000
  C   C33       1.0  0.4022863024249274  0.15476999440412784  0.47204886346976105  1.0000
  C   C34       1.0  0.5977136983271522  0.6547699944766429  0.027951136897067998  1.0000
  C   C35       1.0  0.5977136976557991  0.8452300057409022  0.5279511364786701  1.0000
  C   C36       1.0  0.4022863017535743  0.34523000566838724  0.9720488630513631  1.0000
  C   C37       1.0  0.35522277816726827  0.025160336903974862  0.6218940576231498  1.0000
  C   C38       1.0  0.6447772212421051  0.5251603369764899  0.8781059419068834  1.0000
  C   C39       1.0  0.6447772219134582  0.9748396632410553  0.37810594232528144  1.0000
  C   C40       1.0  0.35522277803263613  0.4748396631685402  0.12189405803916194  1.0000
  C   C41       1.0  0.4454140991130921  0.10435279673717193  0.6956443306956338  1.0000
  C   C42       1.0  0.5545859011022664  0.604352796809687  0.8043556688367851  1.0000
  C   C43       1.0  0.5545859009676343  0.8956472034078582  0.3043556692527973  1.0000
  C   C44       1.0  0.4454140989784601  0.3956472033353431  0.195644331111646  1.0000
  C   C45       1.0  0.510513726377675  0.20544579071317506  0.6534070257491588  1.0000
  C   C46       1.0  0.4894862730316984  0.7054457907856901  0.8465929737808744  1.0000
  C   C47       1.0  0.4894862728970663  0.7945542094318551  0.34659297419688656  1.0000
  C   C48       1.0  0.5105137270490282  0.29455420935934  0.15340702616755675  1.0000
  N   N1        1.0  0.4882867562793139  0.22998379074664987  0.5438146613274744  1.0000
  N   N2        1.0  0.511713243381776  0.729983790819165  0.9561853390326156  1.0000
  N   N3        1.0  0.5117132429954274  0.7700162082240956  0.456185338618571  1.0000
  N   N4        1.0  0.4882867566989504  0.2700162093258652  0.043814660915815345  1.0000
  O   O1        1.0  0.6195008125391643  0.401201699438943  0.46746539825165256  1.0000
  O   O2        1.0  0.3804991871552135  0.9012016995114581  0.03253460128273377  1.0000
  O   O3        1.0  0.3804991875415622  0.5987982995318024  0.5325346016967786  1.0000
  O   O4        1.0  0.6195008121195279  0.09879830063357206  0.9674653986633117  1.0000
  O   O5        1.0  0.7016739083145117  0.46095106377145023  0.6481117858231861  1.0000
  O   O6        1.0  0.2983260921525633  0.9609510638439654  0.8518882145392895  1.0000
  O   O7        1.0  0.2983260917662146  0.5390489363735799  0.35188821412524485  1.0000
  O   O8        1.0  0.7016739079281632  0.039048936301064784  0.14811178540914144  1.0000
  Br  Br1       1.0  0.21961800710184926  0.9403685410485064  0.4014409802875571  1.0000
  Br  Br2       1.0  0.7803819925925285  0.44036854215027604  0.09855901924682928  1.0000
  Br  Br3       1.0  0.7803819929788772  0.05963145792223898  0.598559019660874  1.0000
  Br  Br4       1.0  0.21961800748819793  0.559631457994754  0.9014409807016018  1.0000
  I   I1        1.0  0.08720199962431378  0.8257113227042583  0.683086672985299  1.0000
  I   I2        1.0  0.9127980008427614  0.3257113226317431  0.8169133273771767  1.0000
  I   I3        1.0  0.9127980004564127  0.1742886774407719  0.31691332696313207  1.0000
  I   I4        1.0  0.0872019992379651  0.6742886775132869  0.18308667257125427  1.0000
