data_image0
_chemical_formula_structural       H36C48N4O8Br4I4
_chemical_formula_sum              "H36 C48 N4 O8 Br4 I4"
_cell_length_a       11.82403148718193
_cell_length_b       8.43231489310484
_cell_length_c       13.633247695793033
_cell_angle_alpha    90.0
_cell_angle_beta     111.25366163961158
_cell_angle_gamma    90.0

_space_group_name_H-M_alt    "P 1"
_space_group_IT_number       1

loop_
  _space_group_symop_operation_xyz
  'x, y, z'

loop_
  _atom_site_type_symbol
  _atom_site_label
  _atom_site_symmetry_multiplicity
  _atom_site_fract_x
  _atom_site_fract_y
  _atom_site_fract_z
  _atom_site_occupancy
  H   H1        1.0  0.8662624402896291  0.5667096806248962  0.6242050760726512  1.0000
  H   H2        1.0  0.13373755941914584  0.06670968140195689  0.8757949239531873  1.0000
  H   H3        1.0  0.13373755925903935  0.43329031900689646  0.37579492411526055  1.0000
  H   H4        1.0  0.8662624398087486  0.9332903194157498  0.12420507544773002  1.0000
  H   H5        1.0  0.707143361076984  0.5557429566383885  0.2995930574547152  1.0000
  H   H6        1.0  0.2928566391604483  0.055742956229535096  0.20040694290286468  1.0000
  H   H7        1.0  0.2928566393205548  0.4442570429934043  0.7004069427407914  1.0000
  H   H8        1.0  0.7071433612370903  0.9442570434022576  0.799593057292642  1.0000
  H   H9        1.0  0.03242990141790525  0.8347892861254512  0.4404666081449683  1.0000
  H   H10       1.0  0.967570098498753  0.33478928690251186  0.05953339142561712  1.0000
  H   H11       1.0  0.9675700981307632  0.16521071350634148  0.5595333920429434  1.0000
  H   H12       1.0  0.032429901578011774  0.6652107139151948  0.940466607982895  1.0000
  H   H13       1.0  0.8656053546712449  0.7365426989780208  0.27845001003086417  1.0000
  H   H14       1.0  0.13439464524541325  0.2365426985691675  0.22154998953972124  1.0000
  H   H15       1.0  0.13439464572629375  0.26345730183968585  0.7215499901646424  1.0000
  H   H16       1.0  0.8656053548313515  0.7634573010626252  0.778450009868791  1.0000
  H   H17       1.0  0.6834191593998984  0.4542387824169196  0.47201158348153077  1.0000
  H   H18       1.0  0.3165808408375339  0.9542387828257729  0.02798841687604911  1.0000
  H   H19       1.0  0.3165808401487702  0.5457612172148731  0.527988416706381  1.0000
  H   H20       1.0  0.6834191595600048  0.045761217991933736  0.9720115833194575  1.0000
  H   H21       1.0  0.43031017137606564  0.218993012406355  0.42309704042543017  1.0000
  H   H22       1.0  0.5696898288613664  0.7189930116292943  0.07690295993214971  1.0000
  H   H23       1.0  0.5696898281726027  0.7810069884113516  0.5769029597624816  1.0000
  H   H24       1.0  0.43031017153617224  0.28100698800249835  0.9230970402633569  1.0000
  H   H25       1.0  0.6082077373533232  0.266045689521679  0.7586467033889804  1.0000
  H   H26       1.0  0.391792263204322  0.7660456899305323  0.7413532966444528  1.0000
  H   H27       1.0  0.39179226304421544  0.7339543101101137  0.24135329680652612  1.0000
  H   H28       1.0  0.6082077368724427  0.23395431088717433  0.2586467027640593  1.0000
  H   H29       1.0  0.2920671565059472  0.9677138749493976  0.6319945168707882  1.0000
  H   H30       1.0  0.7079328432028277  0.46771387572645823  0.8680054831550502  1.0000
  H   H31       1.0  0.7079328430427212  0.032286124682395105  0.3680054833171235  1.0000
  H   H32       1.0  0.29206715719471094  0.5322861239053345  0.13199451704045637  1.0000
  H   H33       1.0  0.4569018107891212  0.08247348430603177  0.7863437048177281  1.0000
  H   H34       1.0  0.5430981889196537  0.5824734847148851  0.7136562952081104  1.0000
  H   H35       1.0  0.5430981887595472  0.9175265153257609  0.21365629537018369  1.0000
  H   H36       1.0  0.45690181030824073  0.4175265161028216  0.2863437041928069  1.0000
  C   C1        1.0  0.9630220594534651  0.7080591030681481  0.544905760859261  1.0000
  C   C2        1.0  0.03697794110418013  0.20805910265929475  0.9550942391741724  1.0000
  C   C3        1.0  0.036977940944073646  0.2919408965636446  0.4550942393362456  1.0000
  C   C4        1.0  0.9630220592933585  0.791940896972498  0.04490576102133426  1.0000
  C   C5        1.0  0.8716897371066957  0.607345354736188  0.550063268069363  1.0000
  C   C6        1.0  0.12831026260207923  0.10734535551324861  0.9499367319564755  1.0000
  C   C7        1.0  0.12831026244197266  0.39265464489560475  0.4499367321185488  1.0000
  C   C8        1.0  0.8716897374746854  0.892654645304458  0.05006326745203664  1.0000
  C   C9        1.0  0.7815724973305707  0.6011372765674272  0.36765388763109197  1.0000
  C   C10       1.0  0.21842750290686141  0.10113727615857393  0.13234611272648794  1.0000
  C   C11       1.0  0.21842750306696793  0.3988627242502794  0.6323461125644146  1.0000
  C   C12       1.0  0.7815724974906773  0.8988627234732187  0.8676538874690187  1.0000
  C   C13       1.0  0.962281209561001  0.7558481034919241  0.4465106677816005  1.0000
  C   C14       1.0  0.03771879067643118  0.25584810308307077  0.053489332575979466  1.0000
  C   C15       1.0  0.03771879083653768  0.24415189732578257  0.5534893324139062  1.0000
  C   C16       1.0  0.9622812097211074  0.7441518965487219  0.9465106676195271  1.0000
  C   C17       1.0  0.8696970634818454  0.701438145394277  0.3564934205090424  1.0000
  C   C18       1.0  0.1303029355859424  0.20143814498542367  0.14350657905394817  1.0000
  C   C19       1.0  0.1303029357460489  0.29856185542342967  0.6435065788918749  1.0000
  C   C20       1.0  0.8696970639627262  0.798561854646369  0.8564934211339637  1.0000
  C   C21       1.0  0.52804662728455  0.25446248594849796  0.5895311414724173  1.0000
  C   C22       1.0  0.47195337242422497  0.7544624851714373  0.9104688585534213  1.0000
  C   C23       1.0  0.47195337311298863  0.7455375148692088  0.4104688587230893  1.0000
  C   C24       1.0  0.5280466271244435  0.24553751446035543  0.08953114163449057  1.0000
  C   C25       1.0  0.3525055534471843  0.0871042459053086  0.5196580627273225  1.0000
  C   C26       1.0  0.6474944462615907  0.587104245128248  0.9803419372985159  1.0000
  C   C27       1.0  0.6474944461014841  0.912895754912398  0.48034193746058923  1.0000
  C   C28       1.0  0.35250555296630376  0.41289575450354477  0.019658062102401352  1.0000
  C   C29       1.0  0.43564550510794836  0.18948108203436548  0.5023777961975568  1.0000
  C   C30       1.0  0.5643544946008265  0.6894810824432188  0.9976222038282816  1.0000
  C   C31       1.0  0.5643544944407202  0.8105189175974272  0.4976222039903549  1.0000
  C   C32       1.0  0.43564550547593806  0.3105189171885739  0.0023777955802305128  1.0000
  C   C33       1.0  0.6204080268128647  0.362287971776058  0.5744325449243454  1.0000
  C   C34       1.0  0.3795919737447806  0.8622879721849114  0.925567455109088  1.0000
  C   C35       1.0  0.37959197326390004  0.6377120278557347  0.4255674544841668  1.0000
  C   C36       1.0  0.6204080266527581  0.13771202744688132  0.07443254508641865  1.0000
  C   C37       1.0  0.5354973900284452  0.2157561847562967  0.6916956412326616  1.0000
  C   C38       1.0  0.46450260968032986  0.71575618516515  0.808304358793177  1.0000
  C   C39       1.0  0.46450261036909346  0.7842438148754961  0.3083043589628451  1.0000
  C   C40       1.0  0.5354973898683386  0.28424381565255663  0.1916956413947348  1.0000
  C   C41       1.0  0.3586724919364418  0.04747784387503927  0.6206115005108586  1.0000
  C   C42       1.0  0.6413275077723333  0.5474778442838926  0.87938849951498  1.0000
  C   C43       1.0  0.6413275072914527  0.9525221557567534  0.37938849889005877  1.0000
  C   C44       1.0  0.3586724926252055  0.45252215653381406  0.12061150068052667  1.0000
  C   C45       1.0  0.4513059964247995  0.11279902044191534  0.706980862867857  1.0000
  C   C46       1.0  0.5486940041328455  0.6127990208507686  0.7930191371655761  1.0000
  C   C47       1.0  0.5486940039727392  0.8872009791898773  0.2930191373276495  1.0000
  C   C48       1.0  0.45130599626469303  0.38720097878102405  0.2069808630299304  1.0000
  N   N1        1.0  0.7831929797520837  0.5557862282671909  0.46250118347610936  1.0000
  N   N2        1.0  0.21680702016457454  0.05578622785833757  0.037498816094476105  1.0000
  N   N3        1.0  0.216807020645455  0.4442137713646018  0.5374988167193973  1.0000
  N   N4        1.0  0.7831929790633199  0.9442137717734552  0.9625011833064412  1.0000
  O   O1        1.0  0.610834778481578  0.3796519675300268  0.47534681426135433  1.0000
  O   O2        1.0  0.38916522143508014  0.8796519679388801  0.024653185309231076  1.0000
  O   O3        1.0  0.3891652210670905  0.6203480321017659  0.5246531859265574  1.0000
  O   O4        1.0  0.6108347786416845  0.12034803287882655  0.975346814099281  1.0000
  O   O5        1.0  0.6993658348975439  0.4294056894104869  0.6495444270834609  1.0000
  O   O6        1.0  0.300634164811231  0.9294056898193402  0.8504555729423775  1.0000
  O   O7        1.0  0.3006341654999946  0.5705943102213058  0.3504555731120455  1.0000
  O   O8        1.0  0.6993658347374374  0.07059430981245246  0.1495444272455343  1.0000
  Br  Br1       1.0  0.22787362857179833  0.9958205328487367  0.4013971108733123  1.0000
  Br  Br2       1.0  0.7721263713448598  0.49582053243988333  0.0986028886972731  1.0000
  Br  Br3       1.0  0.7721263718257403  0.004179467968969956  0.5986028893221943  1.0000
  Br  Br4       1.0  0.2278736287319049  0.5041794671919093  0.9013971107112391  1.0000
  I   I1        1.0  0.09896940506007618  0.7918790729056067  0.6823896124897173  1.0000
  I   I2        1.0  0.9010305954975689  0.29187907368266724  0.817610387543716  1.0000
  I   I3        1.0  0.9010305953374625  0.2081209267261861  0.3176103877057893  1.0000
  I   I4        1.0  0.09896940457919565  0.7081209271350395  0.18238961186479616  1.0000
