data_image0
_chemical_formula_structural       H40C64N16I8
_chemical_formula_sum              "H40 C64 N16 I8"
_cell_length_a       4.496739711542034
_cell_length_b       14.880330843821337
_cell_length_c       22.572603243845595
_cell_angle_alpha    90.0
_cell_angle_beta     94.64225873526655
_cell_angle_gamma    90.0

_space_group_name_H-M_alt    "P 1"
_space_group_IT_number       1

loop_
  _space_group_symop_operation_xyz
  'x, y, z'

loop_
  _atom_site_type_symbol
  _atom_site_label
  _atom_site_symmetry_multiplicity
  _atom_site_fract_x
  _atom_site_fract_y
  _atom_site_fract_z
  _atom_site_occupancy
  H   H1        1.0  0.6102858162410035  0.3957484024923543  0.5765945329223583  1.0000
  H   H2        1.0  0.889714182870308  0.895748402363952  0.9234054671500278  1.0000
  H   H3        1.0  0.3897141831043694  0.6042515979228693  0.4234054669777419  1.0000
  H   H4        1.0  0.11028581647506498  0.10425159737924346  0.07659453275007248  1.0000
  H   H5        1.0  0.9881231929251177  0.280425303294426  0.5479502091983259  1.0000
  H   H6        1.0  0.5118768061861938  0.7804253031660238  0.9520497908740602  1.0000
  H   H7        1.0  0.01187680642025521  0.7195746964487695  0.4520497907017743  1.0000
  H   H8        1.0  0.4881231933456833  0.21957469657717177  0.0479502094705115  1.0000
  H   H9        1.0  0.3011874403863258  0.2218262580748055  0.4680341290029629  1.0000
  H   H10       1.0  0.19881255937961279  0.7218262579464033  0.03196587116932295  1.0000
  H   H11       1.0  0.6988125591455513  0.77817374166839  0.5319658713416088  1.0000
  H   H12       1.0  0.8011874399657603  0.2781737417967923  0.9680341287307773  1.0000
  H   H13       1.0  0.47911095102164325  0.2464255269917322  0.3644123420441998  1.0000
  H   H14       1.0  0.020889048744295355  0.74642552686333  0.13558765812808604  1.0000
  H   H15       1.0  0.5208890483237298  0.7535744727514634  0.6355876578559004  1.0000
  H   H16       1.0  0.9791109507875817  0.25357447287986556  0.8644123422164856  1.0000
  H   H17       1.0  0.2760152234559614  0.37608926432732703  0.30440697955357915  1.0000
  H   H18       1.0  0.22398477630997718  0.8760892641989247  0.19559302061870676  1.0000
  H   H19       1.0  0.7239847760759158  0.6239107354158684  0.6955930207909926  1.0000
  H   H20       1.0  0.7760152230353958  0.1239107355442707  0.8044069792813936  1.0000
  H   H21       1.0  0.19066220333822903  0.8677039398866088  0.5435962750232387  1.0000
  H   H22       1.0  0.3093377961953483  0.3677039400150111  0.9564037248476945  1.0000
  H   H23       1.0  0.8093377982304881  0.13229606052861473  0.4564037248756767  1.0000
  H   H24       1.0  0.6906622031500247  0.6322960604002125  0.04359627505240565  1.0000
  H   H25       1.0  0.5773749736658028  0.89983333573257  0.6286141241496631  1.0000
  H   H26       1.0  0.9226250254455087  0.3998333358609722  0.8713858759227229  1.0000
  H   H27       1.0  0.4226250258660743  0.10016666401062556  0.3713858761949086  1.0000
  H   H28       1.0  0.07737497389986424  0.6001666638822234  0.12861412397737726  1.0000
  H   H29       1.0  0.8678966852143319  0.0165308871544438  0.6906180219541201  1.0000
  H   H30       1.0  0.6321033161203238  0.5165308870260416  0.8093819781170811  1.0000
  H   H31       1.0  0.13210331635438516  0.9834691125887517  0.3093819779447952  1.0000
  H   H32       1.0  0.3678966854483933  0.4834691127171539  0.19061802178183423  1.0000
  H   H33       1.0  0.9683187091380663  0.18263948016508438  0.7088309477435896  1.0000
  H   H34       1.0  0.5316812921965893  0.6826394800366821  0.7911690523276116  1.0000
  H   H35       1.0  0.03168129039381078  0.8173605202501392  0.2911690526009821  1.0000
  H   H36       1.0  0.46831870937212783  0.3173605197065134  0.20883094757130377  1.0000
  H   H37       1.0  0.6823675980877868  0.2939482606877795  0.6460595111826063  1.0000
  H   H38       1.0  0.8176324010235247  0.7939482605593772  0.8539404888897798  1.0000
  H   H39       1.0  0.31763240144409033  0.706051739055416  0.35394048916196547  1.0000
  H   H40       1.0  0.18236759832184823  0.20605173918381825  0.1460595110103204  1.0000
  C   C1        1.0  0.6085240122099275  0.46520111499230016  0.49225144096553447  1.0000
  C   C2        1.0  0.8914759869472411  0.965201115535926  0.0077485589637328375  1.0000
  C   C3        1.0  0.39147598713544546  0.5347988847508954  0.5077485589345658  1.0000
  C   C4        1.0  0.10852401239813186  0.0347988848792976  0.9922514409363674  1.0000
  C   C5        1.0  0.7016903203601762  0.39649675010080976  0.5334302615693591  1.0000
  C   C6        1.0  0.7983096809744795  0.8964967499724076  0.9665697385018421  1.0000
  C   C7        1.0  0.2983096791717009  0.6035032496423858  0.4665697387752126  1.0000
  C   C8        1.0  0.20169032059423767  0.10350324977078798  0.033430261397073266  1.0000
  C   C9        1.0  0.9039582878810165  0.3333715145224604  0.5176191383787371  1.0000
  C   C10       1.0  0.596041713453639  0.8333715143940581  0.9823808616924641  1.0000
  C   C11       1.0  0.09604171146435628  0.666628485220735  0.48238086152136317  1.0000
  C   C12       1.0  0.40395828830158226  0.16662848534913732  0.017619138650922694  1.0000
  C   C13       1.0  0.013317664276215955  0.338418270591811  0.4605257796690293  1.0000
  C   C14       1.0  0.4866823354897226  0.8384182704634088  0.03947422050325654  1.0000
  C   C15       1.0  0.986682335069157  0.6615817291513846  0.5394742202310709  1.0000
  C   C16       1.0  0.5133176640421545  0.16158172927978676  0.960525779841315  1.0000
  C   C17       1.0  0.9063278873437721  0.410518244796718  0.4226929912620049  1.0000
  C   C18       1.0  0.5936721118133967  0.9105182446683158  0.07730700866726238  1.0000
  C   C19       1.0  0.09367211200160092  0.5894817556185057  0.5773070086380954  1.0000
  C   C20       1.0  0.40632788753197635  0.08948175574690787  0.9226929912328379  1.0000
  C   C21       1.0  0.22242974346232314  0.2775190890137162  0.43937728528882164  1.0000
  C   C22       1.0  0.2775702563036154  0.777519088885314  0.060622714883464275  1.0000
  C   C23       1.0  0.7775702558830497  0.7224809114015074  0.5606227146112787  1.0000
  C   C24       1.0  0.7224297430417576  0.22248091152990962  0.939377285016636  1.0000
  C   C25       1.0  0.3177619661530585  0.2904167148806633  0.3833892239668538  1.0000
  C   C26       1.0  0.18223803361288002  0.7904167147522609  0.116610776205432  1.0000
  C   C27       1.0  0.6822380331923145  0.7095832855345603  0.6166107759332464  1.0000
  C   C28       1.0  0.8177619657324929  0.20958328499093448  0.8833892236946683  1.0000
  C   C29       1.0  0.2044326507270819  0.3634609429565004  0.3486700729952004  1.0000
  C   C30       1.0  0.29556734885235253  0.8634609428280982  0.151329926732614  1.0000
  C   C31       1.0  0.7955673486182911  0.6365390574587232  0.6513299269048999  1.0000
  C   C32       1.0  0.7044326504930204  0.13653905691509738  0.8486700731674862  1.0000
  C   C33       1.0  0.1150140934467408  0.008883948306491514  0.5248402194121942  1.0000
  C   C34       1.0  0.38498590608683647  0.5088839481780892  0.9751597804587391  1.0000
  C   C35       1.0  0.8849859081219763  0.991116051436704  0.47515978048672125  1.0000
  C   C36       1.0  0.6150140932585364  0.49111605156510624  0.024840219441361118  1.0000
  C   C37       1.0  0.2543386952991147  0.9357990400987615  0.5566464711360679  1.0000
  C   C38       1.0  0.24566130423446253  0.43579904022716376  0.9433535287348652  1.0000
  C   C39       1.0  0.7456613040462583  0.064200959644434  0.4433535287640323  1.0000
  C   C40       1.0  0.7543386951109105  0.5642009601880599  0.05664647116523503  1.0000
  C   C41       1.0  0.4645540364478954  0.9534343267569854  0.6027191993125801  1.0000
  C   C42       1.0  0.0354459630856819  0.45343432688538765  0.8972808005583531  1.0000
  C   C43       1.0  0.5354459628974777  0.04656567298621009  0.3972808005875202  1.0000
  C   C44       1.0  0.964554036259691  0.5465656728578078  0.1027191993417471  1.0000
  C   C45       1.0  0.5372410987769739  0.043593519983418226  0.6173586056192171  1.0000
  C   C46       1.0  0.9627589025576819  0.5435935198550159  0.882641394451984  1.0000
  C   C47       1.0  0.46275890297824746  0.9564064804318054  0.3826413947241697  1.0000
  C   C48       1.0  0.03724109901103519  0.4564064798881795  0.11735860544693118  1.0000
  C   C49       1.0  0.38705347447671323  0.11299438551785657  0.5826641929013279  1.0000
  C   C50       1.0  0.11294652524336822  0.6129943853894543  0.9173358074140768  1.0000
  C   C51       1.0  0.6129465250551639  0.887005614897367  0.4173358074432438  1.0000
  C   C52       1.0  0.887053474288509  0.38700561502576925  0.08266419293049497  1.0000
  C   C53       1.0  0.7505036046816176  0.06876010155546007  0.6639992535391719  1.0000
  C   C54       1.0  0.7494963944296938  0.5687601020990859  0.8360007465332141  1.0000
  C   C55       1.0  0.24949639466375534  0.9312398981877354  0.33600074636092836  1.0000
  C   C56       1.0  0.2505036051021832  0.4312398983161377  0.16399925381135752  1.0000
  C   C57       1.0  0.8042937348622308  0.1587093979822775  0.6741761191824569  1.0000
  C   C58       1.0  0.6957062642490808  0.6587093978538754  0.8258238808899292  1.0000
  C   C59       1.0  0.19570626448314227  0.841290601760918  0.32582388071764334  1.0000
  C   C60       1.0  0.30429373509629215  0.34129060188932026  0.17417611901017108  1.0000
  C   C61       1.0  0.6425380253486768  0.2223499554362278  0.6377469704108465  1.0000
  C   C62       1.0  0.8574619737626348  0.7223499553078255  0.8622530296615395  1.0000
  C   C63       1.0  0.35746197399669627  0.7776500443069677  0.3622530294892538  1.0000
  C   C64       1.0  0.14253802576924235  0.27765004443536995  0.13774697068303204  1.0000
  N   N1        1.0  0.7079857678636984  0.47176718271118895  0.43852106004685465  1.0000
  N   N2        1.0  0.7920142312934704  0.9717671825827867  0.0614789398824126  1.0000
  N   N3        1.0  0.2920142314816746  0.5282328170320065  0.5614789398532456  1.0000
  N   N4        1.0  0.20798576805190266  0.028232817160408843  0.9385210600176878  1.0000
  N   N5        1.0  0.006822366732527818  0.4205454089482432  0.36753096129627105  1.0000
  N   N6        1.0  0.4931776330334108  0.920545409491869  0.13246903887601477  1.0000
  N   N7        1.0  0.9931776326128452  0.5794545907949524  0.6324690386038292  1.0000
  N   N8        1.0  0.5068223685353064  0.07945459092335459  0.8675309610229006  1.0000
  N   N9        1.0  0.17995678805821305  0.09454962626615189  0.537191612875676  1.0000
  N   N10       1.0  0.32004321369870836  0.5945496261377496  0.9628083869940725  1.0000
  N   N11       1.0  0.820043213510504  0.9054503741490716  0.46280838702323945  1.0000
  N   N12       1.0  0.6799567878700088  0.40545037360544584  0.03719161290484295  1.0000
  N   N13       1.0  0.44274210658784874  0.2018363476943175  0.5935310858965311  1.0000
  N   N14       1.0  0.05725789294572852  0.7018363482379433  0.9064689139744022  1.0000
  N   N15       1.0  0.5572578927575242  0.798163652048878  0.4064689140035691  1.0000
  N   N16       1.0  0.9427421063996445  0.29816365217728025  0.09353108592569813  1.0000
  I   I1        1.0  0.8270293225321913  0.5424190076628185  0.30431285844125255  1.0000
  I   I2        1.0  0.6729706766249774  0.04241900779122077  0.1956871414880147  1.0000
  I   I3        1.0  0.1729706768131817  0.457580992080377  0.6956871414588477  1.0000
  I   I4        1.0  0.32702932272039564  0.9575809919519747  0.8043128584120857  1.0000
  I   I5        1.0  0.6209062346969905  0.6791491046851444  0.22347172555676506  1.0000
  I   I6        1.0  0.8790937644601782  0.17914910481354668  0.2765282743725022  1.0000
  I   I7        1.0  0.37909376464838257  0.32085089505805103  0.7765282743433352  1.0000
  I   I8        1.0  0.1209062348851947  0.8208508949296488  0.7234717255275981  1.0000
