data_image0
_chemical_formula_structural       H38C52N4O8Br2
_chemical_formula_sum              "H38 C52 N4 O8 Br2"
_cell_length_a       6.94962215384493
_cell_length_b       9.568127645896315
_cell_length_c       16.13673729509542
_cell_angle_alpha    80.88443103038131
_cell_angle_beta     88.76614248011958
_cell_angle_gamma    76.2762466868499

_space_group_name_H-M_alt    "P 1"
_space_group_IT_number       1

loop_
  _space_group_symop_operation_xyz
  'x, y, z'

loop_
  _atom_site_type_symbol
  _atom_site_label
  _atom_site_symmetry_multiplicity
  _atom_site_fract_x
  _atom_site_fract_y
  _atom_site_fract_z
  _atom_site_occupancy
  H   H1        1.0  0.7971057573077811  0.7571936693820399  0.3951010882541836  1.0000
  H   H2        1.0  0.20289424243370385  0.24280633082898906  0.6048989116762933  1.0000
  H   H3        1.0  0.7793439429821903  0.13462722813446779  0.029595437580663523  1.0000
  H   H4        1.0  0.22065605675929445  0.8653727720765614  0.9704045623498134  1.0000
  H   H5        1.0  0.5621397061532044  0.7339098451541277  0.29447433205459805  1.0000
  H   H6        1.0  0.43786029358828066  0.26609015505690137  0.7055256678758788  1.0000
  H   H7        1.0  0.5395243037495525  0.0066596920272255465  0.053099834682404326  1.0000
  H   H8        1.0  0.46047569599193244  0.9933403081838034  0.9469001652480726  1.0000
  H   H9        1.0  0.19950321151265957  0.6695583483558875  0.16043374085444348  1.0000
  H   H10       1.0  0.8004967882288253  0.3304416518551417  0.8395662590760334  1.0000
  H   H11       1.0  0.8431768224340076  0.5441803120235786  0.3292939810254166  1.0000
  H   H12       1.0  0.1568231776438754  0.4558196871108023  0.6707060189082353  1.0000
  H   H13       1.0  0.7828266722492047  0.16564506485567834  0.574177722955666  1.0000
  H   H14       1.0  0.21717332782867846  0.8343549342787027  0.42582227697798586  1.0000
  H   H15       1.0  0.6889934184394478  0.36138001460973795  0.6636126824407571  1.0000
  H   H16       1.0  0.31100658133312126  0.6386199854346841  0.3363873181174204  1.0000
  H   H17       1.0  0.6741714401791138  0.9166789379904798  0.4939673578713352  1.0000
  H   H18       1.0  0.3258285595623711  0.08332106222054919  0.5060326420591416  1.0000
  H   H19       1.0  0.5792801697873854  0.5641361367395485  0.7466183802475819  1.0000
  H   H20       1.0  0.42071982995409934  0.4358638634714807  0.25338161968289497  1.0000
  H   H21       1.0  0.5227933734590938  0.8298132036765274  0.7547834216002924  1.0000
  H   H22       1.0  0.4772066266187892  0.17018679545785356  0.2452165783333596  1.0000
  H   H23       1.0  0.5690178770400927  0.0036181514958511848  0.6289413333023068  1.0000
  H   H24       1.0  0.4309821230377906  0.9963818476385299  0.37105866663134507  1.0000
  H   H25       1.0  0.9054232771932624  0.2833357712694916  0.3132840918904389  1.0000
  H   H26       1.0  0.09457672254822234  0.7166642289415374  0.6867159080400381  1.0000
  H   H27       1.0  0.8755386082960179  0.09541368326066221  0.4329594008188741  1.0000
  H   H28       1.0  0.12446139144546689  0.9045863169503668  0.5670405991116028  1.0000
  H   H29       1.0  0.7988050911739887  0.3446855016497662  0.1674773926872539  1.0000
  H   H30       1.0  0.20119490856749608  0.655314498561263  0.8325226072432229  1.0000
  H   H31       1.0  0.5407191363118231  0.3662596556585792  0.07004622862833605  1.0000
  H   H32       1.0  0.45928086342966196  0.6337403445524498  0.9299537713021409  1.0000
  H   H33       1.0  0.7013542813985516  0.7138812018753006  0.9668576114531605  1.0000
  H   H34       1.0  0.29864571834293324  0.2861187983357283  0.033142388477316306  1.0000
  H   H35       1.0  0.07100142279941038  0.4374068672207419  0.2202216377412282  1.0000
  H   H36       1.0  0.9289985773095568  0.5625931317470322  0.7797783628201245  1.0000
  H   H37       1.0  0.9743244162181113  0.790053658103487  0.027806367895761915  1.0000
  H   H38       1.0  0.025675583890856064  0.20994634086428704  0.9721936326655907  1.0000
  C   C1        1.0  0.5368440312844028  0.8629546486896922  0.17027743377648946  1.0000
  C   C2        1.0  0.4631559684570821  0.13704535152133682  0.8297225661539873  1.0000
  C   C3        1.0  0.8480543562378625  0.969402392220756  0.21942453378516238  1.0000
  C   C4        1.0  0.15194564497709367  0.030597607813293397  0.7805754667695367  1.0000
  C   C5        1.0  0.37705022701257485  0.8052780366955475  0.13784366784924806  1.0000
  C   C6        1.0  0.62294977272891  0.19472196351548146  0.8621563320812289  1.0000
  C   C7        1.0  0.6183278868645022  0.8138365989208626  0.2512563453326751  1.0000
  C   C8        1.0  0.38167211321338096  0.18616340021351843  0.7487436546009769  1.0000
  C   C9        1.0  0.7742304001039957  0.8686903687214077  0.2773600721777471  1.0000
  C   C10       1.0  0.22576959963748927  0.13130963148962127  0.7226399277527297  1.0000
  C   C11       1.0  0.6058679801610182  0.96793030915768  0.11529549300557938  1.0000
  C   C12       1.0  0.39413201958046684  0.03206969105334892  0.8847045069248974  1.0000
  C   C13       1.0  0.7641675009890283  0.020772812438366227  0.13886852691679033  1.0000
  C   C14       1.0  0.23583249908885498  0.9792271866960146  0.8611314730168615  1.0000
  C   C15       1.0  0.6608673226321142  0.5891666852697126  0.615847686779455  1.0000
  C   C16       1.0  0.33913267710937056  0.41083331494131653  0.3841523131510219  1.0000
  C   C17       1.0  0.6848180573792501  0.6911191462885647  0.5426347069939906  1.0000
  C   C18       1.0  0.3151819423622349  0.30888085392246434  0.45736529293648626  1.0000
  C   C19       1.0  0.8282862740627689  0.4614135234995626  0.3821195719159933  1.0000
  C   C20       1.0  0.17171372567871596  0.5385864767114664  0.6178804280144836  1.0000
  C   C21       1.0  0.7715571409880357  0.5053766411816472  0.46094047563449075  1.0000
  C   C22       1.0  0.22844286019583648  0.494623359019009  0.5390595242925076  1.0000
  C   C23       1.0  0.7533594110462237  0.39596208152806744  0.5312619453477991  1.0000
  C   C24       1.0  0.24664058869526118  0.6040379186829615  0.46873805458267775  1.0000
  C   C25       1.0  0.792391612280562  0.24723768507042004  0.5198329314800691  1.0000
  C   C26       1.0  0.20760838890331024  0.7527623151302361  0.48016706844692925  1.0000
  C   C27       1.0  0.6989508418959334  0.4414029084272695  0.6083964020711206  1.0000
  C   C28       1.0  0.30104915818194977  0.5585970907071114  0.39160359786253146  1.0000
  C   C29       1.0  0.6527476390019822  0.8412617305286387  0.5494403395474909  1.0000
  C   C30       1.0  0.3472523607395026  0.15873826968239027  0.450559660382986  1.0000
  C   C31       1.0  0.6012427273665735  0.6423306123159053  0.6923557018035073  1.0000
  C   C32       1.0  0.39875727237491154  0.357669387895124  0.3076442981269696  1.0000
  C   C33       1.0  0.5695707230139962  0.7884000776473505  0.6965560381088177  1.0000
  C   C34       1.0  0.4304292767274886  0.21159992256367866  0.30344396182165917  1.0000
  C   C35       1.0  0.5958528252032206  0.8882032308587543  0.6243331883909794  1.0000
  C   C36       1.0  0.4041471748746625  0.11179676827562667  0.37566681154267256  1.0000
  C   C37       1.0  0.8623315786212142  0.31723619507801154  0.3736049673969764  1.0000
  C   C38       1.0  0.13766842145666888  0.6827638040563695  0.6263950325366755  1.0000
  C   C39       1.0  0.8452628467197424  0.20878761963925732  0.44261643776111415  1.0000
  C   C40       1.0  0.1547371530528265  0.7912123804051647  0.5573835627970634  1.0000
  C   C41       1.0  0.7214975219811232  0.5220687001411816  0.06285233690426897  1.0000
  C   C42       1.0  0.27850247776036186  0.4779313000698475  0.9371476630262079  1.0000
  C   C43       1.0  0.8308160413906053  0.4453230226558523  0.13532521649199344  1.0000
  C   C44       1.0  0.16918395835087977  0.5546769775551769  0.8646747834384835  1.0000
  C   C45       1.0  0.5603630999067791  0.4680230770412031  0.033415137580951  1.0000
  C   C46       1.0  0.4396368998347058  0.531976923169826  0.9665848623495258  1.0000
  C   C47       1.0  0.7770875654744074  0.6481915014622927  0.023360434924143775  1.0000
  C   C48       1.0  0.22291243426707763  0.3518084987487364  0.9766395650063331  1.0000
  C   C49       1.0  0.983629567712006  0.49594419108373694  0.16458253491202016  1.0000
  C   C50       1.0  0.01637043202947881  0.5040558091272922  0.8354174650184567  1.0000
  C   C51       1.0  0.931018829700855  0.6919356907620999  0.05709904678965267  1.0000
  C   C52       1.0  0.06898117004062984  0.3080643094489292  0.9429009531408242  1.0000
  N   N1        1.0  0.7385532788042803  0.6477007270551653  0.4682221672067627  1.0000
  N   N2        1.0  0.2614467209682886  0.35229927298925684  0.5317778333514149  1.0000
  N   N3        1.0  0.03368746825547812  0.6177016217537582  0.12658806625945587  1.0000
  N   N4        1.0  0.9663125314860068  0.3822983784572707  0.873411933671021  1.0000
  O   O1        1.0  0.3198365578880569  0.7013604651172983  0.1889692057008724  1.0000
  O   O2        1.0  0.6801634432958155  0.2986395350833578  0.8110307942261261  1.0000
  O   O3        1.0  0.8575344706744951  0.8312983916504199  0.3541331290855918  1.0000
  O   O4        1.0  0.14246552906699  0.16870160856060915  0.645866870844885  1.0000
  O   O5        1.0  0.8381093174044592  0.1205230586322413  0.08704406422251171  1.0000
  O   O6        1.0  0.16189068233702567  0.8794769415787878  0.9129559357079652  1.0000
  O   O7        1.0  0.3054899979791757  0.8530124810864783  0.06595510725164233  1.0000
  O   O8        1.0  0.6945100017623093  0.14698751912455074  0.9340448926788345  1.0000
  Br  Br1       1.0  0.06550841203467671  0.037153803458157976  0.2515448734849117  1.0000
  Br  Br2       1.0  0.9344915877068081  0.9628461967528711  0.7484551264455651  1.0000
