data_image0
_chemical_formula_structural       H38C44N6O4I2
_chemical_formula_sum              "H38 C44 N6 O4 I2"
_cell_length_a       9.01436037262909
_cell_length_b       9.424570803528463
_cell_length_c       11.959393421523218
_cell_angle_alpha    108.09114172663533
_cell_angle_beta     95.70281650423075
_cell_angle_gamma    91.30590309068135

_space_group_name_H-M_alt    "P 1"
_space_group_IT_number       1

loop_
  _space_group_symop_operation_xyz
  'x, y, z'

loop_
  _atom_site_type_symbol
  _atom_site_label
  _atom_site_symmetry_multiplicity
  _atom_site_fract_x
  _atom_site_fract_y
  _atom_site_fract_z
  _atom_site_occupancy
  H   H1        1.0  0.4725235285805835  0.354554022207433  0.18202072481122783  1.0000
  H   H2        1.0  0.5274764721239987  0.6454459784830562  0.8179792756559797  1.0000
  H   H3        1.0  0.6611887447613614  0.34721750269778673  0.1495678878479921  1.0000
  H   H4        1.0  0.3388112548348089  0.6527824979877861  0.8504321126266258  1.0000
  H   H5        1.0  0.6093189900916072  0.2756427422197641  0.26007383298151815  1.0000
  H   H6        1.0  0.39068101059716887  0.7243572574127825  0.7399261674940306  1.0000
  H   H7        1.0  0.12763711379485912  0.025312678429421295  0.9358403957143767  1.0000
  H   H8        1.0  0.8723628856509892  0.9746873208366238  0.06415960388343288  1.0000
  H   H9        1.0  0.15391254994667447  0.8291410849815405  0.8922558636875982  1.0000
  H   H10       1.0  0.8460874494991738  0.17085891428450442  0.1077441359102112  1.0000
  H   H11       1.0  0.19187346981910833  0.9327299131831029  0.7972536771244956  1.0000
  H   H12       1.0  0.8081265296425462  0.06727008714088445  0.20274632246497254  1.0000
  H   H13       1.0  0.268770829517076  0.23962910329485423  0.04064608393706037  1.0000
  H   H14       1.0  0.7312291710371842  0.760370895976107  0.9593539156533388  1.0000
  H   H15       1.0  0.19584733677834731  0.2084969434209612  0.4061255653856347  1.0000
  H   H16       1.0  0.804152662667501  0.7915030558450837  0.5938744342121748  1.0000
  H   H17       1.0  0.9915143060769913  0.5146974137304662  0.08147638210154923  1.0000
  H   H18       1.0  0.008485693519178859  0.4853025869551066  0.9185236183730687  1.0000
  H   H19       1.0  0.23993480241957496  0.20911446804170822  0.21996240056762767  1.0000
  H   H20       1.0  0.7600651970262733  0.7908855312243366  0.7800375990301817  1.0000
  H   H21       1.0  0.9108679354721507  0.47118097930724007  0.41977381110762035  1.0000
  H   H22       1.0  0.08913206398950371  0.5288190210167473  0.5802261884818477  1.0000
  H   H23       1.0  0.5044623617418172  0.6752362727031676  0.12206350812655575  1.0000
  H   H24       1.0  0.49553763894695896  0.3247637269293792  0.8779364923489931  1.0000
  H   H25       1.0  0.243589962279444  0.593692345826493  0.03064766624722523  1.0000
  H   H26       1.0  0.7564100382748162  0.40630765344446823  0.969352333343174  1.0000
  H   H27       1.0  0.07991289589154325  0.9919243082989935  0.2652377381257503  1.0000
  H   H28       1.0  0.9200871036888209  0.008075691328636777  0.7347622623572089  1.0000
  H   H29       1.0  0.8461941885775194  0.03121102556103545  0.40619590583014276  1.0000
  H   H30       1.0  0.15380581197674084  0.9687889737099258  0.5938040937602563  1.0000
  H   H31       1.0  0.42355679315010597  0.35442796029225554  0.5440353043440991  1.0000
  H   H32       1.0  0.5764432064302581  0.6455720393353747  0.45596469613886004  1.0000
  H   H33       1.0  0.8953401060914549  0.2769449321383036  0.5633816805153977  1.0000
  H   H34       1.0  0.10465989335439332  0.7230550671277413  0.4366183190824117  1.0000
  H   H35       1.0  0.6868825922855675  0.43781266560239307  0.6322145076124183  1.0000
  H   H36       1.0  0.31311740731060295  0.5621873350831798  0.3677854928621997  1.0000
  H   H37       1.0  0.033217469146563164  0.7553808215970054  0.09914113712866136  1.0000
  H   H38       1.0  0.9667825315580191  0.24461917909348377  0.9008588633385463  1.0000
  C   C1        1.0  0.3566044061966575  0.9697539367211284  0.9472487471091784  1.0000
  C   C2        1.0  0.6433955943734089  0.030246063607775323  0.052751252472879276  1.0000
  C   C3        1.0  0.5341777208411876  0.13640997812233682  0.08243853195944564  1.0000
  C   C4        1.0  0.46582227873917653  0.8635900215052933  0.9175614685235135  1.0000
  C   C5        1.0  0.570070769521813  0.2864038472831278  0.17312813430133772  1.0000
  C   C6        1.0  0.4299292300585512  0.7135961523445025  0.8268718661816216  1.0000
  C   C7        1.0  0.19876926258474545  0.9378408443311179  0.8907738425548265  1.0000
  C   C8        1.0  0.8012307381040308  0.06215915530142881  0.10922615792072247  1.0000
  C   C9        1.0  0.9421210251763247  0.5031016021523699  0.25153333102339115  1.0000
  C   C10       1.0  0.05787897428532961  0.49689839817161746  0.7484666685660769  1.0000
  C   C11       1.0  0.12380123748828412  0.3559429618396072  0.13913596064780118  1.0000
  C   C12       1.0  0.8761987621078862  0.6440570388459655  0.8608640398268167  1.0000
  C   C13       1.0  0.07778405910195718  0.3315479310586025  0.32936830642134446  1.0000
  C   C14       1.0  0.9222159414523031  0.6684520682123588  0.6706316931690546  1.0000
  C   C15       1.0  0.015572886695180881  0.4627008226743444  0.15000269569347016  1.0000
  C   C16       1.0  0.9844271127664738  0.537299177649643  0.8499973038959979  1.0000
  C   C17       1.0  0.15567679760157557  0.2912623623650952  0.22898803533823095  1.0000
  C   C18       1.0  0.8443232018600789  0.7087376379588921  0.7710119642512371  1.0000
  C   C19       1.0  0.9686302761320511  0.438075317093827  0.34093025345823114  1.0000
  C   C20       1.0  0.03136972346411907  0.5619246835917456  0.6590697470163868  1.0000
  C   C21       1.0  0.3190905200452807  0.9707208640123329  0.2879365793847686  1.0000
  C   C22       1.0  0.6809094805089796  0.02927913525862846  0.7120634202056305  1.0000
  C   C23       1.0  0.607539753813956  0.05312098940732744  0.3832988979266623  1.0000
  C   C24       1.0  0.3924602467561104  0.9468790109215763  0.6167011016553955  1.0000
  C   C25       1.0  0.4857138529322237  0.1461887528848386  0.42400034838015693  1.0000
  C   C26       1.0  0.5142861476220367  0.8538112463861226  0.5759996512102422  1.0000
  C   C27       1.0  0.4416365062635656  0.8796359646963972  0.24623351059340398  1.0000
  C   C28       1.0  0.5583634944410166  0.12036403599409191  0.7537664898738036  1.0000
  C   C29       1.0  0.410899211459972  0.7428779101041149  0.1518822374609371  1.0000
  C   C30       1.0  0.5891007880016825  0.25712209021987253  0.848117762128531  1.0000
  C   C31       1.0  0.2668228885583326  0.6996660632505005  0.10148501751921345  1.0000
  C   C32       1.0  0.7331771110220315  0.30033393637712974  0.8985149829637457  1.0000
  C   C33       1.0  0.17137040478428003  0.9224472571747383  0.23314187030720457  1.0000
  C   C34       1.0  0.8286295959044961  0.0775527424578084  0.7668581301683444  1.0000
  C   C35       1.0  0.7556024807049841  0.10302523041424459  0.43659163593789463  1.0000
  C   C36       1.0  0.24439751875667026  0.8969747699097427  0.5634083636515734  1.0000
  C   C37       1.0  0.5168507154484494  0.2862068756034562  0.5143836340131274  1.0000
  C   C38       1.0  0.48314928414772096  0.7137931250821166  0.48561636646149053  1.0000
  C   C39       1.0  0.7816570480277173  0.23849103436703875  0.5239394964012604  1.0000
  C   C40       1.0  0.21834295156845293  0.7615089663185339  0.47606050407335754  1.0000
  C   C41       1.0  0.661781423842685  0.33074533272809115  0.5627910949777694  1.0000
  C   C42       1.0  0.3382185768460912  0.6692546669044557  0.4372089054977796  1.0000
  C   C43       1.0  0.1465795165314982  0.7908277895548943  0.14152783078273934  1.0000
  C   C44       1.0  0.853420484022762  0.20917220971606681  0.8584721688076596  1.0000
  N   N1        1.0  0.3938069880482208  0.10369793942209654  0.028679979101268818  1.0000
  N   N2        1.0  0.6061930126563616  0.8963020612683926  0.9713200213659388  1.0000
  N   N3        1.0  0.5826910981204814  0.9223098114500242  0.29535986740784415  1.0000
  N   N4        1.0  0.4173089024337789  0.0776901878209371  0.704640132182555  1.0000
  N   N5        1.0  0.3442312620263769  0.10144566269871336  0.3759608097272366  1.0000
  N   N6        1.0  0.6557687375539873  0.8985543369289167  0.6240391907557226  1.0000
  O   O1        1.0  0.19506489522369228  0.31978841332186136  0.04006740898896378  1.0000
  O   O2        1.0  0.8049351042379621  0.680211587002126  0.9599325906005044  1.0000
  O   O3        1.0  0.10505995364991266  0.2715924076070458  0.41836998619571225  1.0000
  O   O4        1.0  0.8949400470546697  0.7284075930834434  0.5816300142714954  1.0000
  I   I1        1.0  0.7942688294505017  0.6778180685083444  0.2699820870505698  1.0000
  I   I2        1.0  0.2057311701456687  0.3221819321772285  0.730017913424048  1.0000
