data_image0
_chemical_formula_structural       H40C48N6O8Br2
_chemical_formula_sum              "H40 C48 N6 O8 Br2"
_cell_length_a       8.266157142445277
_cell_length_b       8.983325100965287
_cell_length_c       14.42671097738878
_cell_angle_alpha    83.76929669760595
_cell_angle_beta     76.54718744218911
_cell_angle_gamma    84.3577460860414

_space_group_name_H-M_alt    "P 1"
_space_group_IT_number       1

loop_
  _space_group_symop_operation_xyz
  'x, y, z'

loop_
  _atom_site_type_symbol
  _atom_site_label
  _atom_site_symmetry_multiplicity
  _atom_site_fract_x
  _atom_site_fract_y
  _atom_site_fract_z
  _atom_site_occupancy
  H   H1        1.0  0.22356851905404565  0.3912484652108537  0.6314048883258432  1.0000
  H   H2        1.0  0.7764314813323466  0.6087515344251659  0.36859511164056336  1.0000
  H   H3        1.0  0.6351515249261639  0.23731474003925765  0.9546216458707252  1.0000
  H   H4        1.0  0.36484847546022825  0.762685259596762  0.04537835409568139  1.0000
  H   H5        1.0  0.22695247228719737  0.5842176045726343  0.7322629856439622  1.0000
  H   H6        1.0  0.7730475280991949  0.4157823950633854  0.26773701432244434  1.0000
  H   H7        1.0  0.5467302678604332  0.4889162918975503  0.9317928704622138  1.0000
  H   H8        1.0  0.4532697313136624  0.5110837077470646  0.06820712950834848  1.0000
  H   H9        1.0  0.3385521122039757  0.994908542157654  0.9892108682740577  1.0000
  H   H10       1.0  0.6614478881824166  0.0050914574783658606  0.010789131692348781  1.0000
  H   H11       1.0  0.9112389990187095  0.3512980102923551  0.882539391439543  1.0000
  H   H12       1.0  0.08876100015538599  0.6487019893522599  0.11746060853101926  1.0000
  H   H13       1.0  0.27868861176592086  0.2510637346892514  0.05485181149736172  1.0000
  H   H14       1.0  0.7213113886204715  0.7489362649467682  0.9451481884690448  1.0000
  H   H15       1.0  0.9839630237951029  0.09028330284034652  0.8264542236705035  1.0000
  H   H16       1.0  0.016036975378992575  0.9097166968042685  0.1735457763000589  1.0000
  H   H17       1.0  0.19020814875467154  0.9208369951561447  0.8794643548606295  1.0000
  H   H18       1.0  0.8097918516317208  0.0791630044798749  0.12053564510577702  1.0000
  H   H19       1.0  0.9982484424357463  0.28550416965736214  0.7074988949728512  1.0000
  H   H20       1.0  0.0017515579506460935  0.7144958299786576  0.29250110499355525  1.0000
  H   H21       1.0  0.8628090677096751  0.19830303421276743  0.6539529519449475  1.0000
  H   H22       1.0  0.13719093135403856  0.8016969665501108  0.34604704802768244  1.0000
  H   H23       1.0  0.7871055863819368  0.3589600507182823  0.7158456267440985  1.0000
  H   H24       1.0  0.21289441400445544  0.6410399489177373  0.284154373222308  1.0000
  H   H25       1.0  0.3563201960290812  0.609410734980837  0.5422137369333981  1.0000
  H   H26       1.0  0.6436798030346326  0.39058926578204123  0.45778626303923187  1.0000
  H   H27       1.0  0.2981819015825621  0.7522807821149491  0.457607916154535  1.0000
  H   H28       1.0  0.7018180988038302  0.24771921752107057  0.5423920838118715  1.0000
  H   H29       1.0  0.40294208176667784  0.5823356430138944  0.41806965692034753  1.0000
  H   H30       1.0  0.5970579186197144  0.41766435662212537  0.581930343046059  1.0000
  H   H31       1.0  0.2851474155950381  0.9603873717808478  0.6588796873506656  1.0000
  H   H32       1.0  0.7148525835790573  0.03961262786376708  0.3411203126198968  1.0000
  H   H33       1.0  0.04989719573246248  0.805131023989586  0.7263056470961952  1.0000
  H   H34       1.0  0.9501028046539297  0.1948689756464339  0.27369435287021143  1.0000
  H   H35       1.0  0.21830324417607427  0.2893191294270435  0.2859455709380959  1.0000
  H   H36       1.0  0.7816967548876395  0.7106808713358347  0.7140544290345341  1.0000
  H   H37       1.0  0.4442939810026273  0.28928620741388267  0.3728913789744569  1.0000
  H   H38       1.0  0.5557060191112165  0.7107137921194628  0.6271086217074568  1.0000
  H   H39       1.0  0.4313723388896016  0.13644645440193534  0.5287630771566753  1.0000
  H   H40       1.0  0.5686276614967908  0.8635535452340842  0.47123692280973123  1.0000
  C   C1        1.0  0.35933123993100025  0.3638256972992053  0.7310226077633767  1.0000
  C   C2        1.0  0.6406687591327135  0.636174303463673  0.26897739220925326  1.0000
  C   C3        1.0  0.47013587019900765  0.26480109890997855  0.7739282098520074  1.0000
  C   C4        1.0  0.5298641301873847  0.735198900726041  0.22607179011439912  1.0000
  C   C5        1.0  0.31433557875341084  0.5073113745042662  0.7634194690360558  1.0000
  C   C6        1.0  0.6856644204206849  0.4926886251403487  0.23658053093450643  1.0000
  C   C7        1.0  0.5354642414438031  0.3079550668832862  0.8476143888691453  1.0000
  C   C8        1.0  0.46453575883220743  0.6920449338709966  0.15238561109932877  1.0000
  C   C9        1.0  0.3817703540641956  0.5508850079595606  0.835843547146207  1.0000
  C   C10       1.0  0.6182296451098999  0.44911499168505425  0.16415645282435543  1.0000
  C   C11       1.0  0.3319019191676258  0.7012735782121453  0.874026978974816  1.0000
  C   C12       1.0  0.6680980798960879  0.2987264225507329  0.1259730209978141  1.0000
  C   C13       1.0  0.4935182025239537  0.4530983142667333  0.8764835998452147  1.0000
  C   C14       1.0  0.5064817978624386  0.5469016853692863  0.12351640012119186  1.0000
  C   C15       1.0  0.24458635854433206  0.07818101866227879  0.9698894738602079  1.0000
  C   C16       1.0  0.7554136418420603  0.9218189809737409  0.030110526106198604  1.0000
  C   C17       1.0  0.005269209093687242  0.27495243198441405  0.9078487044462249  1.0000
  C   C18       1.0  0.9947307912927049  0.7250475676516057  0.09215129552018154  1.0000
  C   C19       1.0  0.21043987800450734  0.2182592172744436  0.0051543141961663715  1.0000
  C   C20       1.0  0.7895601223818849  0.7817407823615762  0.9948456857702401  1.0000
  C   C21       1.0  0.04427109659850917  0.13283454242231243  0.8767173770386057  1.0000
  C   C22       1.0  0.9557289037878832  0.8671654572137072  0.12328262292780079  1.0000
  C   C23       1.0  0.08840545197125749  0.31768313208001253  0.9742134827251847  1.0000
  C   C24       1.0  0.9115945484151348  0.6823168675560072  0.025786517241221826  1.0000
  C   C25       1.0  0.9509428232225783  0.40627047985019027  0.5799319699910878  1.0000
  C   C26       1.0  0.04905717716381408  0.5937295197858293  0.4200680299753187  1.0000
  C   C27       1.0  0.14672595889439155  0.5639987100735843  0.48891396857496827  1.0000
  C   C28       1.0  0.8532740414920007  0.4360012895624354  0.5110860313914383  1.0000
  C   C29       1.0  0.8976665589345418  0.3064590508137902  0.6691638216254401  1.0000
  C   C30       1.0  0.10233344145185047  0.6935409488222295  0.33083617834096646  1.0000
  C   C31       1.0  0.30948596808099577  0.6305873804649599  0.4766475418367917  1.0000
  C   C32       1.0  0.6905140310931  0.369412619179655  0.5233524581337706  1.0000
  C   C33       1.0  0.9313656781187419  0.9552278475357637  0.51959684221829  1.0000
  C   C34       1.0  0.06863432226765026  0.0447721521002561  0.48040315774811654  1.0000
  C   C35       1.0  0.1869526933626873  0.9573485269420513  0.6203133263642173  1.0000
  C   C36       1.0  0.8130473070237049  0.04265147269396849  0.3796866736021892  1.0000
  C   C37       1.0  0.05553134118288306  0.8713818796637914  0.6577483622182052  1.0000
  C   C38       1.0  0.9444686592035093  0.12861811997222833  0.34225163774820133  1.0000
  C   C39       1.0  0.2121456703236058  0.22155594418140986  0.3541169569223019  1.0000
  C   C40       1.0  0.7878543300627865  0.7784440554546098  0.6458830430441046  1.0000
  C   C41       1.0  0.924143433196452  0.8664233718044991  0.6088594346727305  1.0000
  C   C42       1.0  0.07585656597764362  0.13357662784011573  0.3911405652978318  1.0000
  C   C43       1.0  0.19889118390989396  0.046188184609271245  0.5303786215800789  1.0000
  C   C44       1.0  0.8011088164764982  0.9538118150267484  0.46962137838632767  1.0000
  C   C45       1.0  0.33916615760147556  0.2212153368973385  0.4032001254929931  1.0000
  C   C46       1.0  0.6608338414622381  0.7787846638655398  0.5967998744796369  1.0000
  C   C47       1.0  0.33327306246547556  0.134753473427679  0.4900943039397386  1.0000
  C   C48       1.0  0.6667269378105347  0.8652465273266039  0.5099056960287357  1.0000
  N   N1        1.0  0.16126512131590545  0.03843333176281809  0.907889944240419  1.0000
  N   N2        1.0  0.838734878960105  0.9615666689914649  0.09211005572805508  1.0000
  N   N3        1.0  0.059534947887801004  0.45913001096166933  0.012476688326544333  1.0000
  N   N4        1.0  0.9404650512862945  0.5408699886829456  0.9875233116440179  1.0000
  N   N5        1.0  0.09521663275262676  0.4708840752572909  0.5672451390063894  1.0000
  N   N6        1.0  0.9047833676337654  0.5291159243787287  0.4327548609600172  1.0000
  O   O1        1.0  0.21499290681855432  0.7821683975183014  0.8432923275235975  1.0000
  O   O2        1.0  0.7850070935678379  0.2178316021177184  0.1567076724428091  1.0000
  O   O3        1.0  0.30167759050475945  0.3138635142163851  0.6614456841991033  1.0000
  O   O4        1.0  0.6983224097712509  0.6861364865378979  0.3385543157693709  1.0000
  O   O5        1.0  0.6379373358281626  0.20812415985656715  0.8884701142788193  1.0000
  O   O6        1.0  0.36206266444784785  0.7918758408977159  0.11152988568965486  1.0000
  O   O7        1.0  0.40563416500149846  0.7403693554381227  0.9343879315353162  1.0000
  O   O8        1.0  0.5943658353848937  0.25963064419789694  0.0656120684310903  1.0000
  Br  Br1       1.0  0.533990639034658  0.07147256560082833  0.7314598771873301  1.0000
  Br  Br2       1.0  0.46600936135173426  0.9285274340351914  0.26854012277907646  1.0000
