data_image0
_chemical_formula_structural       H68C60N4
_chemical_formula_sum              "H68 C60 N4"
_cell_length_a       10.646025961908242
_cell_length_b       11.140602044849137
_cell_length_c       11.049509750609307
_cell_angle_alpha    93.15745468400874
_cell_angle_beta     115.91827368987992
_cell_angle_gamma    97.28867285797493

_space_group_name_H-M_alt    "P 1"
_space_group_IT_number       1

loop_
  _space_group_symop_operation_xyz
  'x, y, z'

loop_
  _atom_site_type_symbol
  _atom_site_label
  _atom_site_symmetry_multiplicity
  _atom_site_fract_x
  _atom_site_fract_y
  _atom_site_fract_z
  _atom_site_occupancy
  H   H1        1.0  0.31808675754927745  0.6075134994667204  0.07198882800927478  1.0000
  H   H2        1.0  0.6819132419817854  0.3924865001198823  0.9280111716256545  1.0000
  H   H3        1.0  0.44491392913568706  0.5642628513294161  0.02277479128490127  1.0000
  H   H4        1.0  0.5550860716198465  0.43573714915917877  0.9772252098271458  1.0000
  H   H5        1.0  0.3121929088074186  0.6437117364959741  0.9156264125157697  1.0000
  H   H6        1.0  0.687807091945045  0.3562882640036378  0.08437358769065609  1.0000
  H   H7        1.0  0.5535249468123548  0.74833184579163  0.1977657195458332  1.0000
  H   H8        1.0  0.44647505394010895  0.25166815470798193  0.8022342806605927  1.0000
  H   H9        1.0  0.5473042589200718  0.785195070438182  0.04267213666267887  1.0000
  H   H10       1.0  0.4526957418323918  0.2148049300614298  0.9573278635437469  1.0000
  H   H11       1.0  0.3315592744532644  0.8357055343361037  0.14482861380292306  1.0000
  H   H12       1.0  0.6684407250777984  0.1642944652504989  0.8551713858320064  1.0000
  H   H13       1.0  0.3255285093307733  0.8721846283356595  0.9898287759245677  1.0000
  H   H14       1.0  0.6744714902002895  0.12781537125094317  0.010171223710361619  1.0000
  H   H15       1.0  0.5671924690281128  0.9724850880735679  0.27152732058430745  1.0000
  H   H16       1.0  0.43280753050295007  0.02751491151303481  0.7284726790506219  1.0000
  H   H17       1.0  0.5647811709668038  0.007416874367905037  0.1173603223325232  1.0000
  H   H18       1.0  0.43521882874109374  0.9925831261305864  0.8826396774384557  1.0000
  H   H19       1.0  0.3453886416345094  0.06241531162074976  0.21299853501817523  1.0000
  H   H20       1.0  0.654611358076458  0.9375846888667246  0.7870014656584249  1.0000
  H   H21       1.0  0.34495251480680783  0.09865448094611078  0.05988344274774811  1.0000
  H   H22       1.0  0.6550474847242551  0.901345518640492  0.9401165568871812  1.0000
  H   H23       1.0  0.5818697710402275  0.1946753254099779  0.3445527399494074  1.0000
  H   H24       1.0  0.41813022866766997  0.8053246750885136  0.6554472598215715  1.0000
  H   H25       1.0  0.5837847782610686  0.23284883781553187  0.1926667404705006  1.0000
  H   H26       1.0  0.4162152212730642  0.7671511617600537  0.8073332600700499  1.0000
  H   H27       1.0  0.3555810227715623  0.2815657717658572  0.2790568906467787  1.0000
  H   H28       1.0  0.6444189778071368  0.718434227810849  0.7209431103292187  1.0000
  H   H29       1.0  0.36627201010333715  0.32672925993363877  0.13380745579052455  1.0000
  H   H30       1.0  0.6337279894277257  0.6732707396529639  0.8661925438444048  1.0000
  H   H31       1.0  0.5996430239222763  0.4094648198813143  0.4239365779971784  1.0000
  H   H32       1.0  0.40035697578562124  0.5905351806171771  0.5760634217738005  1.0000
  H   H33       1.0  0.5980400221017927  0.4611247758181791  0.2757716435942254  1.0000
  H   H34       1.0  0.40195997865067096  0.5388752246814329  0.7242283566122005  1.0000
  H   H35       1.0  0.07883133974275967  0.5884168304811614  0.061145004323312144  1.0000
  H   H36       1.0  0.9211686610097038  0.41158317001845063  0.9388549958831137  1.0000
  H   H37       1.0  0.8268008053747318  0.6088509419144426  0.978339445149429  1.0000
  H   H38       1.0  0.17319919520089733  0.3911490576732805  0.02166055492094718  1.0000
  H   H39       1.0  0.7424668815025429  0.6907869827331552  0.14025459399878823  1.0000
  H   H40       1.0  0.2575331182053546  0.3092130177653363  0.8597454057721907  1.0000
  H   H41       1.0  0.91494035891237  0.7499445624240619  0.3851974708245969  1.0000
  H   H42       1.0  0.08505964061869292  0.25005543716254064  0.6148025288103325  1.0000
  H   H43       1.0  0.16389170042171392  0.7209396474513239  0.46656772374460204  1.0000
  H   H44       1.0  0.8361083001539151  0.2790603521363993  0.5334322763257742  1.0000
  H   H45       1.0  0.7153490268631321  0.6997018163427549  0.4030508074111755  1.0000
  H   H46       1.0  0.28465097388933164  0.3002981841568571  0.5969491927952504  1.0000
  H   H47       1.0  0.7210046364487045  0.6635311944166751  0.560562316414032  1.0000
  H   H48       1.0  0.278995363259193  0.3364688060818165  0.43943768335694705  1.0000
  H   H49       1.0  0.22121861626471856  0.8777263731701829  0.3598467168117592  1.0000
  H   H50       1.0  0.778781383443179  0.12227362732830868  0.6401532829592197  1.0000
  H   H51       1.0  0.14777001775158835  0.07076349194479756  0.40016257096206365  1.0000
  H   H52       1.0  0.8522299817794746  0.9292365076418051  0.5998374286728657  1.0000
  H   H53       1.0  0.07335955677935901  0.3203953558264246  0.17832103658216622  1.0000
  H   H54       1.0  0.9266404427517038  0.679604643760178  0.8216789630527631  1.0000
  H   H55       1.0  0.07123615764990002  0.1158789610184263  0.07614767287459914  1.0000
  H   H56       1.0  0.9287638418811629  0.8841210385681761  0.9238523267603301  1.0000
  H   H57       1.0  0.9462488435296695  0.9293167479811248  0.11879489617566259  1.0000
  H   H58       1.0  0.05375115617822795  0.07068325251736671  0.8812051035953163  1.0000
  H   H59       1.0  0.8219642218822821  0.9511402169115144  0.2618734320046545  1.0000
  H   H60       1.0  0.1780357776487807  0.04885978267508809  0.7381265676302748  1.0000
  H   H61       1.0  0.8235209590487257  0.15489384260579442  0.36278308641185997  1.0000
  H   H62       1.0  0.17647904065917183  0.8451061578926972  0.6372169133591191  1.0000
  H   H63       1.0  0.04484809983200844  0.40388930951154833  0.4387384968893909  1.0000
  H   H64       1.0  0.9551518998758891  0.5961106909869434  0.5612615028815879  1.0000
  H   H65       1.0  0.857639825174765  0.3806433732430363  0.3564473433153741  1.0000
  H   H66       1.0  0.1423601743562979  0.6193566263435664  0.6435526563195553  1.0000
  H   H67       1.0  0.9561913469222163  0.4467780249002648  0.2746419272566118  1.0000
  H   H68       1.0  0.04380865365341278  0.5532219746874584  0.7253580728137645  1.0000
  C   C1        1.0  0.3838184128913598  0.63695342012377  0.021893596680070203  1.0000
  C   C2        1.0  0.6161815868165377  0.3630465803747216  0.9781064030909088  1.0000
  C   C3        1.0  0.4800998537901982  0.7584454083542849  0.09265778947895172  1.0000
  C   C4        1.0  0.5199001457439345  0.24155459122130074  0.9073422110615988  1.0000
  C   C5        1.0  0.39895110194112526  0.8615353829808526  0.09476179757165232  1.0000
  C   C6        1.0  0.6010488988113383  0.13846461751875933  0.9052382026347735  1.0000
  C   C7        1.0  0.4956790600461021  0.9828411998855069  0.16586259656557875  1.0000
  C   C8        1.0  0.5043209394849609  0.01715879970109576  0.8341374030693506  1.0000
  C   C9        1.0  0.41542477513185677  0.08682601805174582  0.1654232674678948  1.0000
  C   C10       1.0  0.5845752256206069  0.9131739824478663  0.8345767327385311  1.0000
  C   C11       1.0  0.5127319244054526  0.2072038191931579  0.23896552157498666  1.0000
  C   C12       1.0  0.4872680753024449  0.7927961813053336  0.7610344781959923  1.0000
  C   C13       1.0  0.43109274137393133  0.3100028729884855  0.23872053243580765  1.0000
  C   C14       1.0  0.5689072593785324  0.6899971275111265  0.7612794677706182  1.0000
  C   C15       1.0  0.5281093976815093  0.427897433904136  0.32128383371225616  1.0000
  C   C16       1.0  0.47189060202638816  0.5721025665943555  0.6787161660587228  1.0000
  C   C17       1.0  0.4500170067408104  0.5260847326684092  0.33262294240631385  1.0000
  C   C18       1.0  0.5499829929670871  0.4739152678300824  0.667377057364665  1.0000
  C   C19       1.0  0.28515005402530885  0.6338201396502241  0.3149338564430782  1.0000
  C   C20       1.0  0.7148499465503202  0.366179859937499  0.685066143627298  1.0000
  C   C21       1.0  0.13837424846615545  0.6533666100400868  0.269191770652102  1.0000
  C   C22       1.0  0.8616257522863082  0.34663339045952524  0.7308082295543238  1.0000
  C   C23       1.0  0.041347525358200805  0.6221108527340441  0.1317743652966304  1.0000
  C   C24       1.0  0.9586524743496967  0.3778891477644473  0.8682256344743486  1.0000
  C   C25       1.0  0.8997966896197187  0.6348530829855416  0.08556513237719311  1.0000
  C   C26       1.0  0.10020331113274498  0.3651469175140704  0.9144348678292327  1.0000
  C   C27       1.0  0.8529937823425761  0.6805172770341285  0.17626877205977015  1.0000
  C   C28       1.0  0.1470062171915567  0.31948272254145726  0.8237312284807805  1.0000
  C   C29       1.0  0.9488023584729051  0.7128927121444164  0.3129791469631021  1.0000
  C   C30       1.0  0.051197641058157786  0.2871072874421863  0.6870208526718273  1.0000
  C   C31       1.0  0.08995558861791118  0.6983666030962954  0.3593100542084205  1.0000
  C   C32       1.0  0.9100444110899865  0.3016333974021962  0.6406899455625584  1.0000
  C   C33       1.0  0.6608671043179755  0.7040066895306573  0.46764698247505837  1.0000
  C   C34       1.0  0.3391328962576535  0.29599331005706586  0.5323530175953178  1.0000
  C   C35       1.0  0.636985884346726  0.8309115129451906  0.4961724351464798  1.0000
  C   C36       1.0  0.3630141153611715  0.1690884875533009  0.5038275646244992  1.0000
  C   C37       1.0  0.49199781646366886  0.834850549508919  0.4484012816302848  1.0000
  C   C38       1.0  0.5080021842918646  0.16514945097967593  0.5515987194817622  1.0000
  C   C39       1.0  0.4146914253683216  0.7122534795356836  0.386618768379614  1.0000
  C   C40       1.0  0.585308575384142  0.2877465209639283  0.6133812318268118  1.0000
  C   C41       1.0  0.44619165194736776  0.9469631388987417  0.4648970298317463  1.0000
  C   C42       1.0  0.5538083475836951  0.05303686068786086  0.5351029698031831  1.0000
  C   C43       1.0  0.3013615247895455  0.9569981882104209  0.416165287316101  1.0000
  C   C44       1.0  0.6986384759629181  0.043001812289190956  0.5838347128903248  1.0000
  C   C45       1.0  0.25968684832865013  0.06565707514819924  0.4372722611506379  1.0000
  C   C46       1.0  0.7403131512024128  0.9343429244384035  0.5627277384842915  1.0000
  C   C47       1.0  0.9487648448602872  0.25257141961483015  0.27788464915965555  1.0000
  C   C48       1.0  0.051235154847610306  0.7474285808836614  0.7221153506113234  1.0000
  C   C49       1.0  0.017199495865104476  0.23921320972564541  0.19561185535464087  1.0000
  C   C50       1.0  0.9828005038427929  0.760786790772846  0.8043881444163379  1.0000
  C   C51       1.0  0.015528398365810669  0.12403849368624188  0.1379401357847424  1.0000
  C   C52       1.0  0.9844716022098182  0.8759615059014811  0.8620598642856337  1.0000
  C   C53       1.0  0.9454898712362493  0.01971746498500851  0.16122445387311127  1.0000
  C   C54       1.0  0.05451012951621447  0.9802825355146035  0.8387755463333145  1.0000
  C   C55       1.0  0.877233961521823  0.03172914168311907  0.24297434757919228  1.0000
  C   C56       1.0  0.1227660392306408  0.968270858816493  0.7570256526272335  1.0000
  C   C57       1.0  0.8790538008391272  0.14710931127018448  0.30063559991573163  1.0000
  C   C58       1.0  0.12094619991333648  0.8528906892294275  0.6993644002906942  1.0000
  C   C59       1.0  0.9514637888442891  0.3771700195774392  0.339570404483944  1.0000
  C   C60       1.0  0.04853621068677375  0.6228299800091635  0.6604295951509854  1.0000
  N   N1        1.0  0.30990996907445645  0.5195999421447405  0.28220050684247655  1.0000
  N   N2        1.0  0.6900900304566064  0.4804000574418622  0.7177994927924528  1.0000
  N   N3        1.0  0.5157711629531885  0.6399355232446813  0.3965790720255886  1.0000
  N   N4        1.0  0.4842288365778746  0.36006447634192146  0.6034209276093407  1.0000
