data_image0
_chemical_formula_structural       H120C100N10Cl2
_chemical_formula_sum              "H120 C100 N10 Cl2"
_cell_length_a       10.052568948619092
_cell_length_b       20.70608629897038
_cell_length_c       10.424932532984096
_cell_angle_alpha    90.0
_cell_angle_beta     104.19142347023694
_cell_angle_gamma    90.0

_space_group_name_H-M_alt    "P 1"
_space_group_IT_number       1

loop_
  _space_group_symop_operation_xyz
  'x, y, z'

loop_
  _atom_site_type_symbol
  _atom_site_label
  _atom_site_symmetry_multiplicity
  _atom_site_fract_x
  _atom_site_fract_y
  _atom_site_fract_z
  _atom_site_occupancy
  H   H1        1.0  0.9773723485613008  0.05201497204488884  0.4197342537321377  1.0000
  H   H2        1.0  0.022627651923856688  0.5520149720697516  0.5802657466910753  1.0000
  H   H3        1.0  0.811356469728206  0.09377464538513744  0.5750794176852283  1.0000
  H   H4        1.0  0.1886435307569514  0.5937746454100002  0.4249205827379847  1.0000
  H   H5        1.0  0.5757219030227858  0.9896715750199007  0.824019257661595  1.0000
  H   H6        1.0  0.42427809646432746  0.4896715749950379  0.175980742748392  1.0000
  H   H7        1.0  0.5333003172693456  0.8624523162973583  0.873807556942859  1.0000
  H   H8        1.0  0.46669968197953016  0.36245231627249563  0.1261924424777819  1.0000
  H   H9        1.0  0.6613362413169103  0.6743409386202701  0.7498042907523833  1.0000
  H   H10       1.0  0.33866375916824726  0.17434093859540734  0.25019570967082977  1.0000
  H   H11       1.0  0.8257607608417389  0.6325721467050637  0.5941043158040675  1.0000
  H   H12       1.0  0.1742392396434185  0.13257214668020093  0.40589568461914555  1.0000
  H   H13       1.0  0.07371538448943125  0.73639995071199  0.35263270978675804  1.0000
  H   H14       1.0  0.9262846157574889  0.23639995068712732  0.6473672896471091  1.0000
  H   H15       1.0  0.11623109689857393  0.8634358734846483  0.30325816881139317  1.0000
  H   H16       1.0  0.8837689035865836  0.3634358734597857  0.6967418316118197  1.0000
  H   H17       1.0  0.3260115160588822  0.020314022839792556  0.45215120593322244  1.0000
  H   H18       1.0  0.6739884834282309  0.5203140228646553  0.5478487944767645  1.0000
  H   H19       1.0  0.4117918459039796  0.9758143701451065  0.35098226760202816  1.0000
  H   H20       1.0  0.5882081545811778  0.47581437012024375  0.6490177328211847  1.0000
  H   H21       1.0  0.42250148388620373  0.06136056527800612  0.3547673671427302  1.0000
  H   H22       1.0  0.5774985165989537  0.5613605653028688  0.6452326332804827  1.0000
  H   H23       1.0  0.45724034955017057  0.07850985051099857  0.6543594690073565  1.0000
  H   H24       1.0  0.5427596496987052  0.5785098505358613  0.3456405304132846  1.0000
  H   H25       1.0  0.5502814459266794  0.12042122997062889  0.5558722995212939  1.0000
  H   H26       1.0  0.4497185545584781  0.6204212299954917  0.44412770090191916  1.0000
  H   H27       1.0  0.6394204987899257  0.07881362351325408  0.7011851796774277  1.0000
  H   H28       1.0  0.36057950045895004  0.5788136235381168  0.29881481974321333  1.0000
  H   H29       1.0  0.35811174548570174  0.7972491252883875  0.41961250674960904  1.0000
  H   H30       1.0  0.6418882549994557  0.29724912526352476  0.580387493673604  1.0000
  H   H31       1.0  0.25506263313170907  0.8017047408338799  0.5355183855533923  1.0000
  H   H32       1.0  0.744937366355404  0.30170474080901716  0.46448161485659467  1.0000
  H   H33       1.0  0.3126280050690602  0.7250031127681758  0.49227829959755465  1.0000
  H   H34       1.0  0.6873719954160972  0.22500311274331297  0.5077217008256583  1.0000
  H   H35       1.0  0.5915893156890626  0.6587016804174246  0.21485503977309536  1.0000
  H   H36       1.0  0.40841068355981314  0.1587016803925618  0.7851449596475457  1.0000
  H   H37       1.0  0.687773799679738  0.7033657273380629  0.12162551445435474  1.0000
  H   H38       1.0  0.31222620056718214  0.20336572731320016  0.8783744849795123  1.0000
  H   H39       1.0  0.5812307352101629  0.7439705648655588  0.20741760810293103  1.0000
  H   H40       1.0  0.41876926527499464  0.24397056484069599  0.792582392320282  1.0000
  H   H41       1.0  0.8041790637542966  0.6025527113069359  0.34556577559554713  1.0000
  H   H42       1.0  0.19582093549457924  0.10255271128207316  0.6544342238250939  1.0000
  H   H43       1.0  0.9539630780925367  0.6468935633995718  0.4216669515436732  1.0000
  H   H44       1.0  0.04603692239262081  0.14689356337470905  0.57833304887954  1.0000
  H   H45       1.0  0.8993133055653395  0.6428989229443105  0.24601664720661715  1.0000
  H   H46       1.0  0.10068669468158048  0.14289892291944767  0.75398335222725  1.0000
  H   H47       1.0  0.6422140375468433  0.9183744999143356  0.13466771337524439  1.0000
  H   H48       1.0  0.35778596293831416  0.418374499889473  0.8653322870479685  1.0000
  H   H49       1.0  0.7632612549581594  0.9157796623760284  0.03551126878500062  1.0000
  H   H50       1.0  0.23673874528876052  0.41577966235116565  0.9644887306488664  1.0000
  H   H51       1.0  0.7070711062094885  0.991662440865082  0.08460258711547433  1.0000
  H   H52       1.0  0.29292889327762456  0.4916624408402193  0.9153974132945126  1.0000
  H   H53       1.0  0.3739541787958683  0.78345519794374  0.05283966768445089  1.0000
  H   H54       1.0  0.6260458204530075  0.2834551979188772  0.9471603317361902  1.0000
  H   H55       1.0  0.2443351322018376  0.7440170463679587  0.20889265055049247  1.0000
  H   H56       1.0  0.7556648682833198  0.24401704634309598  0.7911073498727206  1.0000
  H   H57       1.0  0.12262118474032249  0.6376619979921822  0.17029014135271908  1.0000
  H   H58       1.0  0.8773788147467906  0.1376619979673194  0.8297098590572678  1.0000
  H   H59       1.0  0.13609879326654803  0.5713605400450922  0.9742280457929824  1.0000
  H   H60       1.0  0.8639012072186094  0.07136054002022943  0.025771954630230662  1.0000
  H   H61       1.0  0.2662211328013872  0.6110570832803472  0.8163312340740184  1.0000
  H   H62       1.0  0.7337788674455328  0.11105708325548448  0.18366876535984866  1.0000
  H   H63       1.0  0.12264708091119535  0.11741383354134345  0.12778929246086648  1.0000
  H   H64       1.0  0.8773529193357247  0.6174138335662062  0.8722107069730006  1.0000
  H   H65       1.0  0.3156330642284719  0.15669066443335225  0.03886530575363638  1.0000
  H   H66       1.0  0.6843669362566855  0.656690664458215  0.9611346946695767  1.0000
  H   H67       1.0  0.47369839559655236  0.079154724670567  0.9710410762628687  1.0000
  H   H68       1.0  0.5263016048886051  0.5791547246954298  0.028958924160344283  1.0000
  H   H69       1.0  0.4412965003878645  0.9605900126567637  0.9981262365201923  1.0000
  H   H70       1.0  0.558703500097293  0.4605900126319011  0.0018737639030209066  1.0000
  H   H71       1.0  0.2561430901271545  0.9215075024075797  0.09617786218635954  1.0000
  H   H72       1.0  0.7438569101197656  0.421507502382717  0.9038221372475076  1.0000
  H   H73       1.0  0.6191686512607174  0.9372136747524796  0.34116814506272186  1.0000
  H   H74       1.0  0.38083134922444006  0.4372136747276169  0.6588318553604912  1.0000
  H   H75       1.0  0.4923693341583266  0.8861306731302661  0.46349703325737435  1.0000
  H   H76       1.0  0.5076306653287866  0.3861306731054032  0.5365029671526126  1.0000
  H   H77       1.0  0.57291219153109  0.7840853638674977  0.3986288419983002  1.0000
  H   H78       1.0  0.42708780771778576  0.284085363842635  0.6013711574223408  1.0000
  H   H79       1.0  0.6936133925681653  0.8346866568821077  0.2742040996339951  1.0000
  H   H80       1.0  0.30638660767875475  0.33468665685724497  0.725795899799872  1.0000
  H   H81       1.0  0.8498774517454999  0.8001551061256736  0.6557013898509366  1.0000
  H   H82       1.0  0.15012254774161327  0.30015510610081086  0.3442986105590503  1.0000
  H   H83       1.0  0.9583656963155162  0.8335879311416894  0.5627253609427655  1.0000
  H   H84       1.0  0.04163430416964124  0.3335879311168267  0.4372746394804474  1.0000
  H   H85       1.0  0.00948452857971388  0.7192556529014641  0.6016674416234177  1.0000
  H   H86       1.0  0.9905154709073992  0.21925565287660134  0.3983325587865693  1.0000
  H   H87       1.0  0.03824371265138876  0.726698322548198  0.7747513815555879  1.0000
  H   H88       1.0  0.9617562875955313  0.22669832252333527  0.22524861787827918  1.0000
  H   H89       1.0  0.15437504878693634  0.7621534944913626  0.6909851041096653  1.0000
  H   H90       1.0  0.845624951698221  0.2621534944664999  0.3090148963135478  1.0000
  H   H91       1.0  0.09612123009768078  0.8070660195611651  0.9225973953614577  1.0000
  H   H92       1.0  0.9038787701492392  0.30706601953630236  0.07740260407240937  1.0000
  H   H93       1.0  0.032204049811437624  0.8812213697239022  0.9657238478989861  1.0000
  H   H94       1.0  0.9677959504354826  0.38122137018198915  0.03427615153488077  1.0000
  H   H95       1.0  0.8981935606234174  0.7922346378328241  0.02258559890667199  1.0000
  H   H96       1.0  0.10180643962350275  0.2922346378079614  0.9774144005271951  1.0000
  H   H97       1.0  0.8567762358441751  0.7612801092586883  0.8582512079797273  1.0000
  H   H98       1.0  0.14322376464098233  0.26128010923382555  0.1417487924434857  1.0000
  H   H99       1.0  0.7881923728416702  0.8362279945129466  0.8928563996820762  1.0000
  H   H100      1.0  0.21180762764348718  0.3362279944880838  0.10714360074113681  1.0000
  H   H101      1.0  0.8860436058510746  0.9302630362821303  0.6204698914007776  1.0000
  H   H102      1.0  0.11395639439584558  0.4302630367402172  0.3795301080330895  1.0000
  H   H103      1.0  0.7931324768109415  0.8955355754951173  0.7266219928909137  1.0000
  H   H104      1.0  0.2068675236742161  0.3955355754702545  0.27337800753229935  1.0000
  H   H105      1.0  0.8325514954825853  0.010378640699990034  0.7737274317040489  1.0000
  H   H106      1.0  0.16744850500257213  0.5103786407248528  0.22627256871916407  1.0000
  H   H107      1.0  0.012907720596251797  0.00241433457188314  0.8064378241180061  1.0000
  H   H108      1.0  0.9870922786526238  0.502414334596746  0.19356217530263486  1.0000
  H   H109      1.0  0.9211843077335938  0.9668307284605238  0.9146757265681866  1.0000
  H   H110      1.0  0.07881569275156368  0.46683072843566087  0.0853242738550265  1.0000
  H   H111      1.0  0.16828036817102898  0.9235667394543278  0.8471579260686117  1.0000
  H   H112      1.0  0.8317196323141285  0.42356673942946493  0.15284207435460123  1.0000
  H   H113      1.0  0.2107959699755041  0.8494065496517595  0.7841772621527082  1.0000
  H   H114      1.0  0.7892040292733716  0.34940654962689677  0.21582273726793275  1.0000
  H   H115      1.0  0.2617224331003865  0.9383735767085144  0.650450226562996  1.0000
  H   H116      1.0  0.7382775673847709  0.4383735766836516  0.3495497738602169  1.0000
  H   H117      1.0  0.0912692105672816  0.968798541180498  0.616788759982018  1.0000
  H   H118      1.0  0.9087307886815942  0.46879854115563524  0.383211239438623  1.0000
  H   H119      1.0  0.12514413839258798  0.8938659813718802  0.5488950034661828  1.0000
  H   H120      1.0  0.8748558620925695  0.39386598134701745  0.4511049969570301  1.0000
  C   C1        1.0  0.8141351274961266  0.9804475870946935  0.3506815414638103  1.0000
  C   C2        1.0  0.1858648717527492  0.4804475870698307  0.6493184579568306  1.0000
  C   C3        1.0  0.8791232741717085  0.0320444525546575  0.42525316162846327  1.0000
  C   C4        1.0  0.12087672631344888  0.5320444525795203  0.5747468387947496  1.0000
  C   C5        1.0  0.7919193248771881  0.05373643545836705  0.5058792901775296  1.0000
  C   C6        1.0  0.2080806746099251  0.5537364354832298  0.49412071023245735  1.0000
  C   C7        1.0  0.6756657165160033  0.014853782871333526  0.4791658951238863  1.0000
  C   C8        1.0  0.32433428396915426  0.5148537828961963  0.5208341052993267  1.0000
  C   C9        1.0  0.5478450354306522  0.01611059353194079  0.532381340006864  1.0000
  C   C10       1.0  0.45215496505450514  0.5161105935568036  0.46761866041634903  1.0000
  C   C11       1.0  0.5401078728205986  0.9571614550348665  0.6170728867075936  1.0000
  C   C12       1.0  0.45989212642827715  0.45716145549295345  0.38292711271304747  1.0000
  C   C13       1.0  0.5538585024902186  0.9506983896314031  0.7524500778664914  1.0000
  C   C14       1.0  0.4461414979949388  0.45069838960654035  0.24754992255672156  1.0000
  C   C15       1.0  0.5328628982166308  0.8843032688852697  0.7790652971946144  1.0000
  C   C16       1.0  0.46713710226852667  0.38430326886040683  0.22093470322859857  1.0000
  C   C17       1.0  0.5067519865375792  0.8515922929808719  0.6592704235994863  1.0000
  C   C18       1.0  0.4932480139475781  0.3515922929560091  0.34072957682372673  1.0000
  C   C19       1.0  0.4716591363368654  0.7809982676834556  0.6262869285196391  1.0000
  C   C20       1.0  0.5283408639100547  0.2809982676585928  0.373713070914228  1.0000
  C   C21       1.0  0.5870851870199533  0.7435812170243686  0.5897452296046231  1.0000
  C   C22       1.0  0.41291481246715994  0.2435812169995059  0.41025477080536393  1.0000
  C   C23       1.0  0.6679909456258449  0.6939145617641161  0.6554289798645975  1.0000
  C   C24       1.0  0.3320090546210751  0.1939145617392534  0.3445710195692695  1.0000
  C   C25       1.0  0.7523594596103366  0.6718993565042662  0.5726460432528354  1.0000
  C   C26       1.0  0.24764053963853921  0.1718993564794034  0.42735395616780564  1.0000
  C   C27       1.0  0.7212671209848087  0.7087777080659503  0.45800685798790175  1.0000
  C   C28       1.0  0.2787328795003488  0.2087777080410875  0.5419931424353113  1.0000
  C   C29       1.0  0.774216226437207  0.7065077836909931  0.33387441813528335  1.0000
  C   C30       1.0  0.22578377380971323  0.20650778366613032  0.6661255812985838  1.0000
  C   C31       1.0  0.8578092485861162  0.7660869398959657  0.32113854744842313  1.0000
  C   C32       1.0  0.14219075189904118  0.26608693987110293  0.67886145297479  1.0000
  C   C33       1.0  0.9969866668068719  0.7742367286857667  0.3307306951094218  1.0000
  C   C34       1.0  0.0030133336782856104  0.27423672866090393  0.6692693053137913  1.0000
  C   C35       1.0  0.01978288405754941  0.8406496417850605  0.306151211136857  1.0000
  C   C36       1.0  0.9802171161893708  0.3406496417601978  0.6938487882970101  1.0000
  C   C37       1.0  0.8936300073390481  0.8716223930206183  0.28212230265165406  1.0000
  C   C38       1.0  0.106369992907872  0.37162239299575556  0.717877696782213  1.0000
  C   C39       1.0  0.8539763851409363  0.9411470564077107  0.24247299507432526  1.0000
  C   C40       1.0  0.14602361534422104  0.44114705638284796  0.7575270053488876  1.0000
  C   C41       1.0  0.4193151142467432  0.018305446742914795  0.4152104113992822  1.0000
  C   C42       1.0  0.5806848860001769  0.5183054467677776  0.5847895880345849  1.0000
  C   C43       1.0  0.5497489873888786  0.07710450864291957  0.616368094121246  1.0000
  C   C44       1.0  0.4502510120982345  0.5771045086677823  0.38363190628874083  1.0000
  C   C45       1.0  0.34049602778752286  0.7760094929575849  0.5105137720330175  1.0000
  C   C46       1.0  0.6595039726976346  0.2760094929327222  0.48948622839019557  1.0000
  C   C47       1.0  0.6509762841892116  0.7028896605498892  0.21214527696412244  1.0000
  C   C48       1.0  0.3490237152979015  0.20288966100797615  0.7878547234458645  1.0000
  C   C49       1.0  0.86370981604768  0.6461442972284571  0.33731736749807006  1.0000
  C   C50       1.0  0.1362901844374775  0.14614429720359434  0.662682632925143  1.0000
  C   C51       1.0  0.7335107002462942  0.9417502046714471  0.11572115118476577  1.0000
  C   C52       1.0  0.266489300000626  0.44175020512953406  0.8842788482491014  1.0000
  C   C53       1.0  0.4381700630986354  0.7505159683784737  0.7412703561536946  1.0000
  C   C54       1.0  0.5618299373865221  0.2505159683536109  0.25872964426951833  1.0000
  C   C55       1.0  0.3943406978667143  0.7257536742106233  0.8283810849675776  1.0000
  C   C56       1.0  0.6056593026184431  0.22575367418576056  0.17161891545563535  1.0000
  C   C57       1.0  0.329264697244126  0.6999752208470564  0.9237090170391824  1.0000
  C   C58       1.0  0.6707353032410315  0.19997522082219366  0.07629098338403045  1.0000
  C   C59       1.0  0.3218721950149616  0.7369675746381293  0.03519810223500343  1.0000
  C   C60       1.0  0.678127804233914  0.23696757461326656  0.9648018971856376  1.0000
  C   C61       1.0  0.24869671254655187  0.7144469546973544  0.1235490194503591  1.0000
  C   C62       1.0  0.7513032879386057  0.21444695467249159  0.8764509809728539  1.0000
  C   C63       1.0  0.18149072086846949  0.6549108959656132  0.10211427622864326  1.0000
  C   C64       1.0  0.8185092793784506  0.1549108959407505  0.8978857232052239  1.0000
  C   C65       1.0  0.18933127682073958  0.6175608879132245  0.9923323950430253  1.0000
  C   C66       1.0  0.8106687234261806  0.11756088788836175  0.007667604390841871  1.0000
  C   C67       1.0  0.26266024818802847  0.6395122955060056  0.9034905486197934  1.0000
  C   C68       1.0  0.7373397520588917  0.1395122954811429  0.09650945081407357  1.0000
  C   C69       1.0  0.9718938022640616  0.9712846614089529  0.20763676362797095  1.0000
  C   C70       1.0  0.028106198221095807  0.47128466138409003  0.792363236795242  1.0000
  C   C71       1.0  0.06615374118470518  0.9932906259075485  0.16742093873181482  1.0000
  C   C72       1.0  0.9338462593004523  0.49329062588268563  0.8325790616913982  1.0000
  C   C73       1.0  0.17452759474176194  0.016726447238714633  0.11514329537015681  1.0000
  C   C74       1.0  0.8254724057433955  0.5167264472635774  0.884856705053056  1.0000
  C   C75       1.0  0.1924495692052338  0.08333479273124653  0.0985676347759294  1.0000
  C   C76       1.0  0.8075504300436419  0.5833347927561093  0.9014323646447117  1.0000
  C   C77       1.0  0.3000534750477841  0.10504835866100685  0.047813107536540216  1.0000
  C   C78       1.0  0.6999465242010915  0.6050483586858696  0.9521868918841008  1.0000
  C   C79       1.0  0.38961763658625465  0.06140377865918692  0.010290651048390076  1.0000
  C   C80       1.0  0.6103823629008586  0.5614037786840497  0.9897093493615969  1.0000
  C   C81       1.0  0.3716853100221211  0.9952225713955757  0.02568500626544396  1.0000
  C   C82       1.0  0.6283146904630363  0.49522257137071296  0.9743149941577691  1.0000
  C   C83       1.0  0.2658714936627584  0.9729350969140776  0.0785274780762739  1.0000
  C   C84       1.0  0.7341285068223989  0.47293509688921487  0.9214725223469391  1.0000
  C   C85       1.0  0.9568739473114295  0.8118667824172989  0.6582567016017298  1.0000
  C   C86       1.0  0.043126053173727884  0.3118667823924362  0.3417432988214832  1.0000
  C   C87       1.0  0.04606532804167008  0.752214835054295  0.6847935845152263  1.0000
  C   C88       1.0  0.9539346722052501  0.25221483502943215  0.31520641491864076  1.0000
  C   C89       1.0  0.007240118521431761  0.839504264060967  0.8994683129701198  1.0000
  C   C90       1.0  0.9927598819637258  0.3395042640361043  0.10053168745309332  1.0000
  C   C91       1.0  0.8797182617180437  0.8054482063483579  0.9176164621768839  1.0000
  C   C92       1.0  0.12028173876711389  0.3054482063234951  0.08238353824632907  1.0000
  C   C93       1.0  0.8912983235941325  0.9178067257908122  0.7238084519889564  1.0000
  C   C94       1.0  0.10870167589298045  0.4178067257659494  0.2761915484210306  1.0000
  C   C95       1.0  0.9181709069255262  0.977217833338508  0.8109173097385978  1.0000
  C   C96       1.0  0.08182909232334967  0.47721783331364526  0.18908268968204325  1.0000
  C   C97       1.0  0.14107692804568966  0.8908727039796633  0.7620874920660639  1.0000
  C   C98       1.0  0.8589230724394679  0.3908727044377503  0.23791250835714917  1.0000
  C   C99       1.0  0.1535145973387832  0.9247600629845802  0.6368323868263043  1.0000
  C   C100      1.0  0.8464854019100925  0.42476006295971747  0.3631676125943367  1.0000
  N   N1        1.0  0.691622768184208  0.9707111720576315  0.38481344888364666  1.0000
  N   N2        1.0  0.3083772310646677  0.4707111725157184  0.6151865505369943  1.0000
  N   N3        1.0  0.5118388144323998  0.8963527671051436  0.5628737595546068  1.0000
  N   N4        1.0  0.48816118481647597  0.3963527670802808  0.4371262398660341  1.0000
  N   N5        1.0  0.6207753966490462  0.7520936141744166  0.4706030859792708  1.0000
  N   N6        1.0  0.37922460259982943  0.2520936141495537  0.5293969134413701  1.0000
  N   N7        1.0  0.7971653269364494  0.8258587099992104  0.2916980322154587  1.0000
  N   N8        1.0  0.20283467354870807  0.3258587099743475  0.7083019682077544  1.0000
  N   N9        1.0  0.9989401311541815  0.8650379130744115  0.7608538605499037  1.0000
  N   N10       1.0  0.0010598683329317293  0.36503791304954863  0.23914613986008326  1.0000
  Cl  Cl1       1.0  0.47588016899004293  0.8583989332104651  0.25601232800583856  1.0000
  Cl  Cl2       1.0  0.5241198304970701  0.3583989331856023  0.7439876724041483  1.0000
