data_image0
_chemical_formula_structural       H108C108N16O24
_chemical_formula_sum              "H108 C108 N16 O24"
_cell_length_a       12.604924152592114
_cell_length_b       12.99739865228902
_cell_length_c       15.628848047456135
_cell_angle_alpha    90.0
_cell_angle_beta     110.04868942196947
_cell_angle_gamma    90.0

_space_group_name_H-M_alt    "P 1"
_space_group_IT_number       1

loop_
  _space_group_symop_operation_xyz
  'x, y, z'

loop_
  _atom_site_type_symbol
  _atom_site_label
  _atom_site_symmetry_multiplicity
  _atom_site_fract_x
  _atom_site_fract_y
  _atom_site_fract_z
  _atom_site_occupancy
  H   H1        1.0  0.39625682678944363  0.21892925239304456  0.3890915331649729  1.0000
  H   H2        1.0  0.6037431729842816  0.7189292519202953  0.1109084665768  1.0000
  H   H3        1.0  0.6037431728669533  0.7810707474308417  0.6109084666338279  1.0000
  H   H4        1.0  0.39625682667211537  0.28107074790359093  0.8890915332220007  1.0000
  H   H5        1.0  0.5348009693928308  0.936466114152497  0.7433052021262723  1.0000
  H   H6        1.0  0.4651990309907546  0.4364661138558614  0.7566947979625195  1.0000
  H   H7        1.0  0.46519903110808286  0.06353388644077403  0.25669479790549166  1.0000
  H   H8        1.0  0.5348009695101592  0.5635338859680248  0.24330520206924436  1.0000
  H   H9        1.0  0.06077098863132819  0.3135560491008148  0.18334572243930886  1.0000
  H   H10       1.0  0.939229011142397  0.8135560486280656  0.31665427730246404  1.0000
  H   H11       1.0  0.9392290110250687  0.6864439514924562  0.8166542773594919  1.0000
  H   H12       1.0  0.060770988513999875  0.18644395119582072  0.6833457224963366  1.0000
  H   H13       1.0  0.3253522737047024  0.3911444748295585  0.4809381302195078  1.0000
  H   H14       1.0  0.6746477260690229  0.8911444743568092  0.01906186952226502  1.0000
  H   H15       1.0  0.6746477267962114  0.6088555257637125  0.519061869812256  1.0000
  H   H16       1.0  0.32535227358737406  0.10885552546707702  0.9809381302765356  1.0000
  H   H17       1.0  0.4674274176626417  0.37988477556856626  0.48647093037774164  1.0000
  H   H18       1.0  0.5325725821117915  0.8798847758652016  0.013529070004069051  1.0000
  H   H19       1.0  0.532572582838272  0.6201152242553201  0.5135290696540222  1.0000
  H   H20       1.0  0.46742741754531336  0.12011522472806924  0.9864709304347696  1.0000
  H   H21       1.0  0.5827814141665348  0.32123234669459744  0.6280532108732975  1.0000
  H   H22       1.0  0.41721858537253376  0.8212323469912329  0.8719467889825312  1.0000
  H   H23       1.0  0.4172185854898621  0.6787676531292889  0.3719467889255033  1.0000
  H   H24       1.0  0.5827814142838632  0.17876765283265333  0.12805321081626952  1.0000
  H   H25       1.0  0.6179116579478914  0.20729028570078584  0.7639871268340948  1.0000
  H   H26       1.0  0.3820883424356941  0.7072902859974213  0.736012873254697  1.0000
  H   H27       1.0  0.3820883425530225  0.7927097141231004  0.23601287319766914  1.0000
  H   H28       1.0  0.6179116572207028  0.29270971459584966  0.2639871265441037  1.0000
  H   H29       1.0  0.5140897261008797  0.11074914823409628  0.8583973813903444  1.0000
  H   H30       1.0  0.4859102734381889  0.6107491485307318  0.641602618465484  1.0000
  H   H31       1.0  0.48591027355551725  0.88925085158979  0.14160261840845625  1.0000
  H   H32       1.0  0.514089726218208  0.38925085129315445  0.3583973813333166  1.0000
  H   H33       1.0  0.40000329937089346  0.029431756325534426  0.7968319938683721  1.0000
  H   H34       1.0  0.5999967001681752  0.5294317566221699  0.7031680059874564  1.0000
  H   H35       1.0  0.5999967002855034  0.9705682434983518  0.20316800593042858  1.0000
  H   H36       1.0  0.40000329948892976  0.47056824320171636  0.29683199445138214  1.0000
  H   H37       1.0  0.8723912999415276  0.9418096264858491  0.9681149892710743  1.0000
  H   H38       1.0  0.12760870044205788  0.44180962618921354  0.5318850108177176  1.0000
  H   H39       1.0  0.12760869971486938  0.058190373338037234  0.03188501052772649  1.0000
  H   H40       1.0  0.8723913000588559  0.5581903736346727  0.4681149892140464  1.0000
  H   H41       1.0  0.00020575979367913166  0.8008032375129884  0.9528535317057776  1.0000
  H   H42       1.0  0.9997942405899063  0.30080323721635294  0.5471464683830143  1.0000
  H   H43       1.0  0.9997942398634256  0.19919676231089786  0.04714646873306114  1.0000
  H   H44       1.0  0.00020575991100744997  0.6991967626075334  0.45285353164874964  1.0000
  H   H45       1.0  0.6321031239521353  0.8596897409184376  0.7089781893117415  1.0000
  H   H46       1.0  0.3678968764314501  0.359689741391187  0.7910218107770502  1.0000
  H   H47       1.0  0.36789687654877845  0.14031025890544851  0.2910218107200224  1.0000
  H   H48       1.0  0.6321031232249468  0.6403102584326993  0.20897818902175047  1.0000
  H   H49       1.0  0.2878806487614705  0.07377625982343203  0.642757166487887  1.0000
  H   H50       1.0  0.7121193507775981  0.5737762601200674  0.8572428333679414  1.0000
  H   H51       1.0  0.7121193508949264  0.9262237400004542  0.35724283331091355  1.0000
  H   H52       1.0  0.28788064887879883  0.4262237397038187  0.14275716643085928  1.0000
  H   H53       1.0  0.2532634962033371  0.18600480409010395  0.507077736262675  1.0000
  H   H54       1.0  0.7467365041802484  0.6860048043867395  0.9929222638261166  1.0000
  H   H55       1.0  0.7467365042975767  0.8139951957337823  0.49292226376908876  1.0000
  H   H56       1.0  0.2532634963206654  0.3139951954371469  0.007077736205647262  1.0000
  H   H57       1.0  0.9392955024796268  0.9334005676484677  0.5588746342227223  1.0000
  H   H58       1.0  0.060704497904666616  0.43340056812121686  0.9411253665061072  1.0000
  H   H59       1.0  0.060704498021994936  0.06659943217541862  0.4411253664490794  1.0000
  H   H60       1.0  0.939295502596955  0.5665994317026694  0.058874634165694564  1.0000
  H   H61       1.0  0.3243570242791093  0.7474014646991829  0.5853537604752463  1.0000
  H   H62       1.0  0.6756429761044761  0.24740146440254743  0.9146462396135455  1.0000
  H   H63       1.0  0.6756429762218044  0.2525985351247033  0.4146462395565176  1.0000
  H   H64       1.0  0.32435702439643765  0.7525985354213389  0.08535376041821843  1.0000
  H   H65       1.0  0.2020916940473113  0.7298869753702041  0.4882052021426865  1.0000
  H   H66       1.0  0.7979083057271218  0.22988697507356856  0.011794798239124325  1.0000
  H   H67       1.0  0.7979083056097934  0.2701130244536822  0.5117947982961522  1.0000
  H   H68       1.0  0.20209169392927512  0.7701130247503177  0.9882052015596764  1.0000
  H   H69       1.0  0.38007205589835563  0.043219812289212886  0.4548204791173395  1.0000
  H   H70       1.0  0.6199279438753696  0.5432198125858484  0.04517952062443335  1.0000
  H   H71       1.0  0.6199279437580413  0.9567801875346734  0.5451795206814611  1.0000
  H   H72       1.0  0.3800720557810274  0.45678018723803787  0.9548204791743674  1.0000
  H   H73       1.0  0.4393101129111957  0.9451727302244808  0.40873419102673286  1.0000
  H   H74       1.0  0.5606898868625295  0.44517273069723  0.09126580871504003  1.0000
  H   H75       1.0  0.5606898867452013  0.05482726959940551  0.5912658087720679  1.0000
  H   H76       1.0  0.43931011279386745  0.5548272691266563  0.9087341910837606  1.0000
  H   H77       1.0  0.1961818711430267  0.7372044611644287  0.3213396909120108  1.0000
  H   H78       1.0  0.8038181286306987  0.237204461637178  0.17866030882976208  1.0000
  H   H79       1.0  0.8038181285133703  0.2627955386594575  0.6786603088867899  1.0000
  H   H80       1.0  0.1961818710256984  0.7627955381867083  0.8213396909690387  1.0000
  H   H81       1.0  0.009769222275300965  0.9376751153088346  0.12610658460774535  1.0000
  H   H82       1.0  0.9902307774984243  0.43767511578158397  0.37389341513402746  1.0000
  H   H83       1.0  0.9902307782256129  0.06232488451505156  0.8738934154240185  1.0000
  H   H84       1.0  0.009769222157972646  0.5623248848116871  0.6261065846647731  1.0000
  H   H85       1.0  0.9875718171078275  0.8066474246485905  0.14866459686082145  1.0000
  H   H86       1.0  0.012428182665897802  0.3066474251213398  0.35133540288095144  1.0000
  H   H87       1.0  0.012428182548569483  0.19335257517529572  0.8513354029379794  1.0000
  H   H88       1.0  0.9875718169904992  0.6933525747025464  0.6486645969178493  1.0000
  H   H89       1.0  0.10735959075601015  0.8412311703676493  0.11874186461849938  1.0000
  H   H90       1.0  0.8926404090177151  0.3412311708403985  0.3812581351232735  1.0000
  H   H91       1.0  0.8926404089003869  0.158768829456237  0.8812581351803014  1.0000
  H   H92       1.0  0.10735959063868182  0.6587688297528724  0.6187418646755273  1.0000
  H   H93       1.0  0.28861936147637984  0.8737739992302161  0.7262041523459309  1.0000
  H   H94       1.0  0.7113806380626888  0.37377399970296543  0.7737958475098976  1.0000
  H   H95       1.0  0.7113806381800172  0.12622600059367003  0.2737958474528698  1.0000
  H   H96       1.0  0.28861936159370816  0.6262260008903054  0.22620415228890312  1.0000
  H   H97       1.0  0.09460655847005874  0.9636520549282515  0.7311460520968355  1.0000
  H   H98       1.0  0.90539344106901  0.46365205463161596  0.7688539477589931  1.0000
  H   H99       1.0  0.9053934411863382  0.03634794489563485  0.2688539477019652  1.0000
  H   H100      1.0  0.09460655858738705  0.5363479451922704  0.23114605203980762  1.0000
  H   H101      1.0  0.7157188599966234  0.42890263806890566  0.5333232611768562  1.0000
  H   H102      1.0  0.2842811403876699  0.9289026375961564  0.9666767395519733  1.0000
  H   H103      1.0  0.2842811405049982  0.5710973617549806  0.4666767394949454  1.0000
  H   H104      1.0  0.7157188601139517  0.07109736222772983  0.03332326111982843  1.0000
  H   H105      1.0  0.7542136118485389  0.4905237886872987  0.6239325526803084  1.0000
  H   H106      1.0  0.24578638769052982  0.9905237889839341  0.8760674471755201  1.0000
  H   H107      1.0  0.24578638780785816  0.5094762111365876  0.37606744711849227  1.0000
  H   H108      1.0  0.7542136119658671  0.009476210839952098  0.1239325526232806  1.0000
  C   C1        1.0  0.11403798868680572  0.25017898096303565  0.17700771433914014  1.0000
  C   C2        1.0  0.8859620110869195  0.7501789804902863  0.32299228540263275  1.0000
  C   C3        1.0  0.8859620109695913  0.7498210196302354  0.8229922854596606  1.0000
  C   C4        1.0  0.11403798856947737  0.24982101933359985  0.677007714396168  1.0000
  C   C5        1.0  0.2179579877995141  0.23405446515747555  0.24638996620850065  1.0000
  C   C6        1.0  0.7820420119742112  0.734054465454111  0.2536100335332722  1.0000
  C   C7        1.0  0.7820420118568828  0.7659455346664108  0.7536100335903001  1.0000
  C   C8        1.0  0.21795798768218577  0.26594553436977525  0.7463899662655284  1.0000
  C   C9        1.0  0.25327117231032176  0.3051830243970727  0.3264341316031464  1.0000
  C   C10       1.0  0.7467288274634035  0.8051830246937082  0.17356586813862654  1.0000
  C   C11       1.0  0.7467288273460752  0.6948169754268136  0.6735658681956543  1.0000
  C   C12       1.0  0.25327117303751023  0.19481697589956282  0.8264341318931373  1.0000
  C   C13       1.0  0.3908890733591989  0.33550569130477664  0.4809403308097153  1.0000
  C   C14       1.0  0.6091109264145264  0.8355056908320273  0.019059668932057554  1.0000
  C   C15       1.0  0.6091109262971981  0.6644943092884944  0.5190596689890854  1.0000
  C   C16       1.0  0.3908890732418705  0.16449430899185885  0.9809403308667431  1.0000
  C   C17       1.0  0.41470310237948704  0.2627763417411606  0.5604840564246854  1.0000
  C   C18       1.0  0.5852968980040985  0.7627763420377961  0.9395159436641064  1.0000
  C   C19       1.0  0.5852968981214267  0.7372236580827257  0.43951594360707846  1.0000
  C   C20       1.0  0.4147031024968154  0.2372236585554749  0.06048405636765748  1.0000
  C   C21       1.0  0.517997330659708  0.2675701409979855  0.6324380118317288  1.0000
  C   C22       1.0  0.4820026688793606  0.7675701412946211  0.8675619880240998  1.0000
  C   C23       1.0  0.48200266899668903  0.7324298588259007  0.36756198796707185  1.0000
  C   C24       1.0  0.5179973307770362  0.23242985852926526  0.132438011774701  1.0000
  C   C25       1.0  0.5371190645818664  0.20435418356058727  0.7082330896799927  1.0000
  C   C26       1.0  0.4628809349572022  0.7043541838572228  0.7917669101758358  1.0000
  C   C27       1.0  0.46288093507523836  0.795645816263299  0.29176691075884587  1.0000
  C   C28       1.0  0.5371190646991948  0.29564581673604823  0.20823308962296497  1.0000
  C   C29       1.0  0.45392055226030714  0.13550464036046375  0.7131955136244547  1.0000
  C   C30       1.0  0.5460794472787616  0.6355046406570992  0.786804486231374  1.0000
  C   C31       1.0  0.5460794473967977  0.8644953594634225  0.286804486814384  1.0000
  C   C32       1.0  0.45392055237763546  0.364495359166787  0.21319551356742683  1.0000
  C   C33       1.0  0.4776433857214848  0.06662817408062549  0.7953197982728252  1.0000
  C   C34       1.0  0.5223566146621007  0.566628174377261  0.7046802018159666  1.0000
  C   C35       1.0  0.522356614779429  0.9333718257432607  0.2046802017589387  1.0000
  C   C36       1.0  0.47764338583881316  0.43337182621601  0.29531979821579735  1.0000
  C   C37       1.0  0.6677010641529094  0.9896661304402349  0.852913249153951  1.0000
  C   C38       1.0  0.332298936230676  0.4896661301435995  0.6470867509348407  1.0000
  C   C39       1.0  0.33229893550348755  0.010333870153036013  0.14708675064484975  1.0000
  C   C40       1.0  0.6677010642702378  0.5103338696802868  0.3529132490969231  1.0000
  C   C41       1.0  0.7437507227646343  0.907846587280134  0.8400449405828803  1.0000
  C   C42       1.0  0.2562492767751422  0.4078465877528832  0.6599550599129863  1.0000
  C   C43       1.0  0.2562492768924705  0.09215341254375228  0.15995505985595843  1.0000
  C   C44       1.0  0.7437507228819628  0.5921534128403878  0.3400449405258524  1.0000
  C   C45       1.0  0.8487132571919498  0.8922989030545362  0.9082991445350278  1.0000
  C   C46       1.0  0.15128674319163568  0.39229890275790075  0.591700855553764  1.0000
  C   C47       1.0  0.151286743308964  0.10770109676935007  0.09170085549673608  1.0000
  C   C48       1.0  0.8487132564647613  0.6077010970659855  0.40829914424503677  1.0000
  C   C49       1.0  0.9194185862553802  0.8138869963903889  0.899264176407543  1.0000
  C   C50       1.0  0.08058141412820523  0.3138869960937535  0.6007358236812487  1.0000
  C   C51       1.0  0.08058141340101674  0.18611300343349732  0.1007358233912578  1.0000
  C   C52       1.0  0.9194185863727087  0.6861130037301328  0.3992641763505151  1.0000
  C   C53       1.0  0.7125069657809011  0.8457767522629616  0.762610335176597  1.0000
  C   C54       1.0  0.2874930337581674  0.34577675196632596  0.7373896646792316  1.0000
  C   C55       1.0  0.28749303387549574  0.15422324756092481  0.23738966462220373  1.0000
  C   C56       1.0  0.7125069658982295  0.6542232478575603  0.26261033511956916  1.0000
  C   C57       1.0  0.3522867001497034  0.1284283166698149  0.6398144434951661  1.0000
  C   C58       1.0  0.6477133002338821  0.6284283169664504  0.8601855565936255  1.0000
  C   C59       1.0  0.6477133003512103  0.8715716831540714  0.3601855565365977  1.0000
  C   C60       1.0  0.35228669942251495  0.3715716836268206  0.13981444320517522  1.0000
  C   C61       1.0  0.3328348074057945  0.19162362228239951  0.5639603129336106  1.0000
  C   C62       1.0  0.6671651929777909  0.6916236218096503  0.9360396871551812  1.0000
  C   C63       1.0  0.6671651930951191  0.8083763783108714  0.4360396870981533  1.0000
  C   C64       1.0  0.33283480667860604  0.30837637801423595  0.0639603126436196  1.0000
  C   C65       1.0  0.027283538495514886  0.9116638972917233  0.5891608288135195  1.0000
  C   C66       1.0  0.9727164610435537  0.4116638969950878  0.910839171042309  1.0000
  C   C67       1.0  0.972716461160882  0.08833610330154772  0.4108391709852812  1.0000
  C   C68       1.0  0.0272835386128432  0.5883361028287984  0.08916082875649163  1.0000
  C   C69       1.0  0.1846351769258087  0.8391321626561951  0.5850875070314767  1.0000
  C   C70       1.0  0.8153648234577768  0.3391321623595595  0.914912493057315  1.0000
  C   C71       1.0  0.8153648235751051  0.16086783716769126  0.4149124930002872  1.0000
  C   C72       1.0  0.18463517619862022  0.6608678374643268  0.08508750674148567  1.0000
  C   C73       1.0  0.2523787940771648  0.7870422685079713  0.5368305668969894  1.0000
  C   C74       1.0  0.7476212063064207  0.2870422682113358  0.9631694331918023  1.0000
  C   C75       1.0  0.7476212055792321  0.21295773131591492  0.46316943290181123  1.0000
  C   C76       1.0  0.2523787941944931  0.7129577316125505  0.036830566839961595  1.0000
  C   C77       1.0  0.40212537625700656  0.901811663515894  0.5269785074701718  1.0000
  C   C78       1.0  0.597874623282062  0.40181166321925843  0.9730214923856568  1.0000
  C   C79       1.0  0.5978746233993903  0.09818833630799229  0.4730214923286289  1.0000
  C   C80       1.0  0.40212537637433493  0.5981883366046278  0.026978507413143976  1.0000
  C   C81       1.0  0.44156914586821866  0.9802798098953531  0.4734518212150751  1.0000
  C   C82       1.0  0.5584308539055066  0.48027980959871763  0.026548178526697778  1.0000
  C   C83       1.0  0.558430854632695  0.019720190697917857  0.5265481788166888  1.0000
  C   C84       1.0  0.44156914575089035  0.5197201902251686  0.973451821272103  1.0000
  C   C85       1.0  0.2258703930461437  0.8874706715230715  0.39732853944686186  1.0000
  C   C86       1.0  0.7741296067275816  0.38747067199582064  0.102671460294911  1.0000
  C   C87       1.0  0.77412960745477  0.11252932830081488  0.6026714605849021  1.0000
  C   C88       1.0  0.22587039292881542  0.6125293285974504  0.8973285395038897  1.0000
  C   C89       1.0  0.1821310234795031  0.8195098484668026  0.3223484686312273  1.0000
  C   C90       1.0  0.8178689771387389  0.3195098489395519  0.1776515313435087  1.0000
  C   C91       1.0  0.8178689770214106  0.18049015135708363  0.6776515314005366  1.0000
  C   C92       1.0  0.18213102336217482  0.6804901516537191  0.8223484686882552  1.0000
  C   C93       1.0  0.11893533688937322  0.8821965415349197  0.2531774563892092  1.0000
  C   C94       1.0  0.8810646628850599  0.3821965412382842  0.2468225439926016  1.0000
  C   C95       1.0  0.8810646627677317  0.11780345828896657  0.7468225440496293  1.0000
  C   C96       1.0  0.11893533677133701  0.6178034585856021  0.7531774558061991  1.0000
  C   C97       1.0  0.051967485133329765  0.8659772344535851  0.15594552724087657  1.0000
  C   C98       1.0  0.9480325154849123  0.3659772349263344  0.3440544727338594  1.0000
  C   C99       1.0  0.948032515367584  0.13402276537030117  0.8440544727908873  1.0000
  C   C100      1.0  0.05196748501600145  0.6340227648975519  0.6559455272979045  1.0000
  C   C101      1.0  0.20815222185388535  0.8781881102023296  0.6710137244699353  1.0000
  C   C102      1.0  0.7918477776851833  0.37818810990569407  0.8289862753858931  1.0000
  C   C103      1.0  0.7918477778025116  0.12181189039094142  0.32898627532886526  1.0000
  C   C104      1.0  0.20815222197121372  0.6218118899181921  0.1710137244129076  1.0000
  C   C105      1.0  0.10631918617797041  0.9248213647646382  0.6737198438091528  1.0000
  C   C106      1.0  0.893680814205615  0.42482136523738734  0.8262801562796389  1.0000
  C   C107      1.0  0.8936808143236511  0.07517863505924814  0.32628015686264894  1.0000
  C   C108      1.0  0.10631918545078194  0.5751786353558836  0.17371984351916184  1.0000
  N   N1        1.0  0.34947087508891755  0.28069912354019194  0.39501816552993985  1.0000
  N   N2        1.0  0.6505291246855156  0.7806991238368274  0.10498183485187089  1.0000
  N   N3        1.0  0.6505291245681872  0.7193008762836944  0.6049818349088988  1.0000
  N   N4        1.0  0.3494708749708814  0.21930087598705883  0.8950181649469299  1.0000
  N   N5        1.0  0.5596650954306808  0.9880651631577292  0.7954452072709249  1.0000
  N   N6        1.0  0.44033490495290467  0.4880651636304784  0.7045547928178667  1.0000
  N   N7        1.0  0.44033490507094086  0.01193483666615711  0.20455479340087693  1.0000
  N   N8        1.0  0.5596650947034922  0.5119348369627926  0.29544520698093385  1.0000
  N   N9        1.0  0.2969869452809288  0.8611146645124169  0.48589413263412895  1.0000
  N   N10       1.0  0.7030130544927965  0.3611146642157814  0.014105867107643909  1.0000
  N   N11       1.0  0.7030130543754681  0.13888533608085404  0.5141058671646718  1.0000
  N   N12       1.0  0.2969869460081172  0.6388853356081049  0.98589413292412  1.0000
  N   N13       1.0  0.19108460509000133  0.9835886650863437  0.3772637921239523  1.0000
  N   N14       1.0  0.8089153946844319  0.48358866555909286  0.12273620825785848  1.0000
  N   N15       1.0  0.8089153954116203  0.016411334737542586  0.6227362085478495  1.0000
  N   N16       1.0  0.1910846049719651  0.5164113342647934  0.8772637915409423  1.0000
  O   O1        1.0  0.7028116654101944  0.05532415672064978  0.915055354869897  1.0000
  O   O2        1.0  0.297188334973391  0.5553241570172852  0.5849446452188948  1.0000
  O   O3        1.0  0.2971883342462025  0.9446758431032365  0.08494464492890375  1.0000
  O   O4        1.0  0.7028116655275228  0.44467584280660094  0.4150553548128691  1.0000
  O   O5        1.0  0.19588624504994168  0.38316216215488125  0.32861951180236415  1.0000
  O   O6        1.0  0.8041137555683004  0.8831621624515167  0.1713804881723719  1.0000
  O   O7        1.0  0.8041137554509721  0.616837837669005  0.6713804882293998  1.0000
  O   O8        1.0  0.19588624493261333  0.11683783737236957  0.828619511859392  1.0000
  O   O9        1.0  0.07359644432580859  0.8599111036754763  0.5339125452684611  1.0000
  O   O10       1.0  0.9264035560577768  0.3599111033788408  0.9660874548203306  1.0000
  O   O11       1.0  0.9264035561751051  0.14008889691779466  0.4660874547633027  1.0000
  O   O12       1.0  0.07359644444313691  0.6400888964450454  0.03391254521143332  1.0000
  O   O13       1.0  0.12378318997963854  0.9805822942697404  0.28510668961579205  1.0000
  O   O14       1.0  0.8762168097947945  0.480582293973105  0.21489331076601872  1.0000
  O   O15       1.0  0.8762168096767584  0.019417705554145827  0.7148933101830086  1.0000
  O   O16       1.0  0.12378318986231021  0.5194177058507813  0.7851066896728198  1.0000
  O   O17       1.0  0.46184650598159804  0.872850410570582  0.6049640770575202  1.0000
  O   O18       1.0  0.5381534944019875  0.37285041104333116  0.8950359230312714  1.0000
  O   O19       1.0  0.5381534945193157  0.1271495892533043  0.3950359229742436  1.0000
  O   O20       1.0  0.4618465060996343  0.6271495895499398  0.10496407764053027  1.0000
  O   O21       1.0  0.7254683359387911  0.4223570390397478  0.5983685068924627  1.0000
  O   O22       1.0  0.2745316644447943  0.9223570393363834  0.901631493196329  1.0000
  O   O23       1.0  0.27453166371760584  0.5776429607841385  0.40163149290633804  1.0000
  O   O24       1.0  0.7254683360561194  0.07764296048750291  0.09836850683543483  1.0000
