data_image0
_chemical_formula_structural       H30C42N2O6F6S2
_chemical_formula_sum              "H30 C42 N2 O6 F6 S2"
_cell_length_a       8.940047737699485
_cell_length_b       10.120697274461103
_cell_length_c       11.21145340325868
_cell_angle_alpha    68.43891961353043
_cell_angle_beta     80.0663476431956
_cell_angle_gamma    69.61602248610248

_space_group_name_H-M_alt    "P 1"
_space_group_IT_number       1

loop_
  _space_group_symop_operation_xyz
  'x, y, z'

loop_
  _atom_site_type_symbol
  _atom_site_label
  _atom_site_symmetry_multiplicity
  _atom_site_fract_x
  _atom_site_fract_y
  _atom_site_fract_z
  _atom_site_occupancy
  H   H1        1.0  0.27626211026775965  0.7229758861887886  0.3867436936993391  1.0000
  H   H2        1.0  0.7237378890764224  0.27702411472198407  0.613256305843413  1.0000
  H   H3        1.0  0.4287818899622643  0.8550158108651619  0.4226778908741796  1.0000
  H   H4        1.0  0.571218109754067  0.14498418892776166  0.5773221089854159  1.0000
  H   H5        1.0  0.4395331662543818  0.10312548124557257  0.41110216787864484  1.0000
  H   H6        1.0  0.5604668345973249  0.8968745185478487  0.5888978318325996  1.0000
  H   H7        1.0  0.20607043787462573  0.32783667604680733  0.35312910577782974  1.0000
  H   H8        1.0  0.7939295618417054  0.6721633237461162  0.6468708940817657  1.0000
  H   H9        1.0  0.950222370393916  0.3121241364667828  0.30442774617698276  1.0000
  H   H10       1.0  0.04977763008564165  0.6878758644444878  0.6955722532174182  1.0000
  H   H11       1.0  0.8005260125657575  0.15883251202079107  0.28308027558274373  1.0000
  H   H12       1.0  0.19947398714156517  0.8411674877686194  0.7169197251711612  1.0000
  H   H13       1.0  0.6521907253204196  0.9971955855718886  0.26435624264572166  1.0000
  H   H14       1.0  0.3478092743959116  0.0028044142210348244  0.735643757213874  1.0000
  H   H15       1.0  0.6510150619629917  0.7422211916947729  0.28804579463398117  1.0000
  H   H16       1.0  0.3489849388887149  0.2577788080986486  0.7119542050772633  1.0000
  H   H17       1.0  0.891952440874166  0.5258886187710782  0.3520492795517263  1.0000
  H   H18       1.0  0.10804755996853199  0.47411138101883016  0.6479507210538276  1.0000
  H   H19       1.0  0.1440242031922138  0.5559480789681027  0.3899773078620867  1.0000
  H   H20       1.0  0.8559757976594928  0.4440519208253187  0.6100226918491579  1.0000
  H   H21       1.0  0.8438387796449023  0.5925617746441879  0.00530434041381681  1.0000
  H   H22       1.0  0.1561612200624203  0.4074382251452226  0.994695660340088  1.0000
  H   H23       1.0  0.09272513607338884  0.6174870552203141  0.04913885866214626  1.0000
  H   H24       1.0  0.907274863633934  0.3825129445690964  0.9508611420917588  1.0000
  H   H25       1.0  0.24131343420043969  0.776204894945389  0.06356818469170102  1.0000
  H   H26       1.0  0.7586865655158913  0.22379510484753457  0.9364318151678943  1.0000
  H   H27       1.0  0.38858632625996575  0.9336176361004316  0.08150570964640311  1.0000
  H   H28       1.0  0.6114136745827323  0.06638236368947689  0.9184942909591509  1.0000
  H   H29       1.0  0.3960919048201757  0.18337781343902634  0.061300910627855906  1.0000
  H   H30       1.0  0.6039080948871469  0.8166221863503842  0.938699090126049  1.0000
  C   C1        1.0  0.18305210485160942  0.9459917139873745  0.36731111204750466  1.0000
  C   C2        1.0  0.8169478948647216  0.0540082858055491  0.632688887812091  1.0000
  C   C3        1.0  0.3264248929618554  0.9557626276261963  0.3949781075131392  1.0000
  C   C4        1.0  0.6735751078898513  0.04423737216722496  0.6050218921981052  1.0000
  C   C5        1.0  0.33102093742775623  0.09282285252638317  0.38895680920339093  1.0000
  C   C6        1.0  0.6689790622795664  0.9071771472630273  0.6110431915505139  1.0000
  C   C7        1.0  0.1962053499384122  0.22275715034504642  0.35570896861848683  1.0000
  C   C8        1.0  0.8037946497779189  0.7772428494478771  0.6442910312411085  1.0000
  C   C9        1.0  0.05617307583577689  0.2146818829835201  0.3287911739516993  1.0000
  C   C10       1.0  0.9438269238805543  0.7853181168094033  0.6712088259078961  1.0000
  C   C11       1.0  0.04508035576871549  0.07568922225358672  0.334311008026287  1.0000
  C   C12       1.0  0.9549196439476155  0.924310777539337  0.6656889918333084  1.0000
  C   C13       1.0  0.9054013657932513  0.06043586433337364  0.3082266729638115  1.0000
  C   C14       1.0  0.09459863355093077  0.9395641365773992  0.6917733265789404  1.0000
  C   C15       1.0  0.8980834561963871  0.9218321389271575  0.31577928119406795  1.0000
  C   C16       1.0  0.1019165435199442  0.07816786086576595  0.6842207186655275  1.0000
  C   C17       1.0  0.7583379521798251  0.9003465018684793  0.29184995389966495  1.0000
  C   C18       1.0  0.24166204753650586  0.09965349792444432  0.7081500459599305  1.0000
  C   C19       1.0  0.7577472163022743  0.7604949544442056  0.3042220114860385  1.0000
  C   C20       1.0  0.24225278303289932  0.23950504646305423  0.6957779889510229  1.0000
  C   C21       1.0  0.8974264256547514  0.635835173292393  0.3402892584142527  1.0000
  C   C22       1.0  0.10257357406157983  0.36416482650053045  0.6597107414453427  1.0000
  C   C23       1.0  0.03650856876371776  0.6512573204990444  0.3619695553780564  1.0000
  C   C24       1.0  0.9634914309526132  0.34874267929387925  0.6380304444815391  1.0000
  C   C25       1.0  0.03853773880282661  0.7945024622874062  0.3498980208751729  1.0000
  C   C26       1.0  0.9614622609135046  0.20549753750551736  0.6501019789844226  1.0000
  C   C27       1.0  0.8493028261010174  0.701718720457402  0.9960056712364536  1.0000
  C   C28       1.0  0.15069717323415632  0.29828128044985763  0.003994329200607876  1.0000
  C   C29       1.0  0.987647791436227  0.7152293558695546  0.020433796798392096  1.0000
  C   C30       1.0  0.012352208271095351  0.28477064391985596  0.979566203955513  1.0000
  C   C31       1.0  0.9968484519345253  0.8568299722510112  0.010304560077885713  1.0000
  C   C32       1.0  0.003151547409656857  0.14317002865976158  0.9896954394648664  1.0000
  C   C33       1.0  0.13600180921153898  0.8739279427980629  0.035657944300915345  1.0000
  C   C34       1.0  0.8639981905047921  0.12607205699486063  0.9643420555586802  1.0000
  C   C35       1.0  0.14301397721819223  0.013494051386281673  0.026292548379589848  1.0000
  C   C36       1.0  0.8569860224981388  0.986505948406642  0.9737074514800056  1.0000
  C   C37       1.0  0.28399474792787516  0.03209488988147116  0.052117278853957706  1.0000
  C   C38       1.0  0.716005252542674  0.9679051110262864  0.9478827214347528  1.0000
  C   C39       1.0  0.2879869793153744  0.17059943441169362  0.04095690371643828  1.0000
  C   C40       1.0  0.7120130204009567  0.8294005653812299  0.9590430961431573  1.0000
  C   C41       1.0  0.5006819290770641  0.4493136826899479  0.1852567222520199  1.0000
  C   C42       1.0  0.499318070639267  0.5506863171029757  0.8147432776075754  1.0000
  N   N1        1.0  0.1728203752880159  0.8135347685254217  0.37208448291634816  1.0000
  N   N2        1.0  0.8271796255636907  0.18646523126799963  0.6279155167948963  1.0000
  O   O1        1.0  0.45852299462984225  0.6152085213090915  0.3250076760351531  1.0000
  O   O2        1.0  0.5414770062218643  0.38479147848432993  0.6749923236760913  1.0000
  O   O3        1.0  0.6887179220958773  0.3850906458941878  0.3675834439820249  1.0000
  O   O4        1.0  0.3112820776204537  0.6149093538987358  0.6324165558775706  1.0000
  O   O5        1.0  0.4151712134898457  0.3696088784619078  0.4289392685271283  1.0000
  O   O6        1.0  0.5848287862264854  0.6303911213310157  0.5710607313324672  1.0000
  F   F1        1.0  0.5607744212102499  0.3076973287394145  0.17968001585630453  1.0000
  F   F2        1.0  0.43922557964145686  0.6923026710540069  0.8203199838549399  1.0000
  F   F3        1.0  0.3445040372815594  0.5025735264957387  0.1555496581575077  1.0000
  F   F4        1.0  0.6554959624347716  0.49742647329718476  0.8444503417020878  1.0000
  F   F5        1.0  0.5801427193603733  0.5347098728373763  0.09279352580702883  1.0000
  F   F6        1.0  0.41985727998380873  0.46529012807339665  0.9072064737357233  1.0000
  S   S1        1.0  0.518571966784633  0.45421369048346966  0.346532509032917  1.0000
  S   S2        1.0  0.48142803292268954  0.5457863093059409  0.6534674917209878  1.0000
