data_image0
_chemical_formula_structural       H80C64N24O40S8
_chemical_formula_sum              "H80 C64 N24 O40 S8"
_cell_length_a       12.065836928117369
_cell_length_b       13.361256902177402
_cell_length_c       13.137255575140465
_cell_angle_alpha    90.0
_cell_angle_beta     91.48591973400526
_cell_angle_gamma    90.0

_space_group_name_H-M_alt    "P 1"
_space_group_IT_number       1

loop_
  _space_group_symop_operation_xyz
  'x, y, z'

loop_
  _atom_site_type_symbol
  _atom_site_label
  _atom_site_symmetry_multiplicity
  _atom_site_fract_x
  _atom_site_fract_y
  _atom_site_fract_z
  _atom_site_occupancy
  H   H1        1.0  0.8020896897308086  0.9400295729627935  0.1544326245042282  1.0000
  H   H2        1.0  0.8020896892514604  0.059970426874242665  0.6544326244342396  1.0000
  H   H3        1.0  0.30208968914108986  0.4400295730442754  0.15443262436700111  1.0000
  H   H4        1.0  0.30208968949080045  0.5599704267927608  0.6544326243197223  1.0000
  H   H5        1.0  0.5647058988080323  0.9506886060943839  0.7617189505624222  1.0000
  H   H6        1.0  0.5647058984615507  0.049311393742652254  0.2617189498485896  1.0000
  H   H7        1.0  0.06470589821831363  0.4506886061758658  0.761718950425195  1.0000
  H   H8        1.0  0.06470589869766183  0.5493113936611703  0.2617189504951836  1.0000
  H   H9        1.0  0.6110336747447678  0.07136746317965073  0.7210476979567348  1.0000
  H   H10       1.0  0.6110336743950573  0.9286325366573854  0.22104769800401375  1.0000
  H   H11       1.0  0.11103367415182028  0.5713674630981688  0.7210476985806191  1.0000
  H   H12       1.0  0.11103367463439737  0.42863253673886736  0.22104769788949646  1.0000
  H   H13       1.0  0.4815947642336975  0.06063476557119216  0.7804422987097929  1.0000
  H   H14       1.0  0.4815947638839869  0.9393652350142765  0.2804422987570717  1.0000
  H   H15       1.0  0.9815947639943575  0.5606347654897103  0.7804422988243102  1.0000
  H   H16       1.0  0.9815947644737056  0.4393652343473259  0.28044229889429884  1.0000
  H   H17       1.0  0.6408241471303502  0.8968130062709353  0.9254718222666503  1.0000
  H   H18       1.0  0.6408241476096984  0.10318699356610084  0.425471822336639  1.0000
  H   H19       1.0  0.1408241473696902  0.3968130063524173  0.925471822152133  1.0000
  H   H20       1.0  0.14082414701997967  0.6031869934846189  0.4254718221994119  1.0000
  H   H21       1.0  0.32703537090186513  0.9578599546210622  0.06725312111060631  1.0000
  H   H22       1.0  0.3270353704225169  0.04214004521597397  0.5672531210406176  1.0000
  H   H23       1.0  0.8270353706625252  0.4578599547025441  0.06725312122512361  1.0000
  H   H24       1.0  0.8270353701831769  0.5421400451344921  0.5672531211551349  1.0000
  H   H25       1.0  0.2825886965035571  0.08037983835375405  0.10379675933796355  1.0000
  H   H26       1.0  0.2825886968532677  0.9196201614832821  0.6037967592906847  1.0000
  H   H27       1.0  0.7825886962674459  0.5803798382722721  0.10379675869136952  1.0000
  H   H28       1.0  0.7825886966171565  0.41962016156476406  0.6037967586440907  1.0000
  H   H29       1.0  0.4122190634584134  0.06586964059171524  0.04572720389041949  1.0000
  H   H30       1.0  0.4122190629790652  0.9341303592453208  0.5457272038204308  1.0000
  H   H31       1.0  0.9122190632190733  0.5658696405102334  0.04572720400493678  1.0000
  H   H32       1.0  0.9122190635687839  0.43413035932680283  0.545727203957658  1.0000
  H   H33       1.0  0.2521580315460356  0.8990961178242375  0.905112960522369  1.0000
  H   H34       1.0  0.25215803202538384  0.10090388201279864  0.4051129605923578  1.0000
  H   H35       1.0  0.7521580321357544  0.3990961179057194  0.9051129606595962  1.0000
  H   H36       1.0  0.7521580317892727  0.6009038819313167  0.40511295994576374  1.0000
  H   H37       1.0  0.09183639775460739  0.9414866125319397  0.671550698330997  1.0000
  H   H38       1.0  0.09183639823395559  0.05851338805352907  0.1715506984009858  1.0000
  H   H39       1.0  0.5918363983443261  0.4414866126134216  0.6715506984682242  1.0000
  H   H40       1.0  0.5918363979946155  0.5585133879720472  0.1715506985155031  1.0000
  H   H41       1.0  0.009100954689355598  0.2146191305948685  0.15605936513506832  1.0000
  H   H42       1.0  0.009100955039066164  0.7853808692421677  0.6560593650877895  1.0000
  H   H43       1.0  0.5091009552790743  0.7146191305133865  0.1560593652722954  1.0000
  H   H44       1.0  0.5091009547997261  0.2853808693236496  0.6560593652023068  1.0000
  H   H45       1.0  0.9834886700533543  0.3267975813928426  0.08652165674883966  1.0000
  H   H46       1.0  0.983488670403065  0.6732024184441935  0.5865216567015608  1.0000
  H   H47       1.0  0.4834886702926944  0.8267975813113607  0.08652165663432235  1.0000
  H   H48       1.0  0.48348867064240497  0.17320241852567542  0.5865216565870435  1.0000
  H   H49       1.0  0.11798973035731211  0.27000912387307524  0.08387631486502821  1.0000
  H   H50       1.0  0.11798973070702268  0.7299908759639608  0.5838763148177494  1.0000
  H   H51       1.0  0.6179897309470308  0.7700091237915934  0.0838763150022553  1.0000
  H   H52       1.0  0.6179897304676827  0.2299908760454428  0.5838763149322667  1.0000
  H   H53       1.0  0.9507113180546768  0.7863084241938264  0.9318432410200587  1.0000
  H   H54       1.0  0.9507113185340249  0.2136915763916423  0.4318432410900473  1.0000
  H   H55       1.0  0.4507113182940167  0.2863084235268758  0.9318432409055413  1.0000
  H   H56       1.0  0.45071131794430613  0.7136915763101603  0.4318432409528202  1.0000
  H   H57       1.0  0.9694388956185309  0.8511775803178101  0.8143911600641808  1.0000
  H   H58       1.0  0.9694388961011081  0.14882241951922606  0.3143911593730581  1.0000
  H   H59       1.0  0.469438895857871  0.35117758039929203  0.8143911599496636  1.0000
  H   H60       1.0  0.4694388955081605  0.6488224194377441  0.3143911599969424  1.0000
  H   H61       1.0  0.8393981842196255  0.8577488475752858  0.8751437555184286  1.0000
  H   H62       1.0  0.8393981838699148  0.1422511530101829  0.3751437555657075  1.0000
  H   H63       1.0  0.3393981844557366  0.3577488476567678  0.8751437561650226  1.0000
  H   H64       1.0  0.339398184109255  0.642251152928701  0.3751437554511902  1.0000
  H   H65       1.0  0.913974481848079  0.22335061153667932  0.675815438880306  1.0000
  H   H66       1.0  0.9139744823274272  0.7766493883003569  0.17581543895029478  1.0000
  H   H67       1.0  0.4139744820874191  0.72335061220363  0.6758154387657889  1.0000
  H   H68       1.0  0.4139744817377085  0.2766493883818388  0.1758154388130677  1.0000
  H   H69       1.0  0.8742477076533703  0.3230691447371653  0.7573045667150209  1.0000
  H   H70       1.0  0.8742477081327185  0.6769308550998709  0.2573045667850097  1.0000
  H   H71       1.0  0.3742477078927104  0.8230691446556834  0.7573045666005037  1.0000
  H   H72       1.0  0.37424770837205856  0.17693085518135276  0.25730456667049234  1.0000
  H   H73       1.0  0.7774497865228406  0.2252749447179244  0.7276169277929774  1.0000
  H   H74       1.0  0.77744978617313  0.7747250551191117  0.22761692784025633  1.0000
  H   H75       1.0  0.277449785929893  0.7252749446364425  0.7276169284168618  1.0000
  H   H76       1.0  0.27744978641247015  0.27472505520059365  0.22761692772573902  1.0000
  H   H77       1.0  0.04268359329426102  0.8738244886300579  0.07820770984716832  1.0000
  H   H78       1.0  0.04268359364397158  0.1261755119554108  0.5782077097998894  1.0000
  H   H79       1.0  0.542683593054921  0.37382448871153984  0.07820770996168563  1.0000
  H   H80       1.0  0.5426835934046316  0.6261755118739288  0.5782077099144067  1.0000
  C   C1        1.0  0.621659810659461  0.047293137511413605  0.8805676276371198  1.0000
  C   C2        1.0  0.6216598111388092  0.9527068623256225  0.3805676277071086  1.0000
  C   C3        1.0  0.12165981089880103  0.5472931374299317  0.8805676275226028  1.0000
  C   C4        1.0  0.12165981054909046  0.45270686240710445  0.38056762756988155  1.0000
  C   C5        1.0  0.7149079765898041  0.9973179228241947  0.03887929425858812  1.0000
  C   C6        1.0  0.7149079769395146  0.002682077012841512  0.5388792942113093  1.0000
  C   C7        1.0  0.21490797682914417  0.49731792290567656  0.038879294144070826  1.0000
  C   C8        1.0  0.2149079771788547  0.5026820769313596  0.538879294096792  1.0000
  C   C9        1.0  0.6551733286902252  0.9742827142166989  0.9464412782628074  1.0000
  C   C10       1.0  0.6551733283405146  0.025717285620337343  0.4464412783100863  1.0000
  C   C11       1.0  0.15517332809727752  0.47428271429818075  0.9464412788866918  1.0000
  C   C12       1.0  0.15517332857662572  0.5257172855388554  0.4464412789566804  1.0000
  C   C13       1.0  0.5665410379097915  0.030608688463534636  0.7800253775732621  1.0000
  C   C14       1.0  0.5665410383891396  0.9693913113735015  0.2800253776432508  1.0000
  C   C15       1.0  0.06654103814913154  0.5306086883820527  0.7800253774587448  1.0000
  C   C16       1.0  0.06654103862847975  0.4693913114549835  0.2800253775287335  1.0000
  C   C17       1.0  0.238681892235741  0.9760888504340234  0.8818075255380494  1.0000
  C   C18       1.0  0.23868189188603045  0.023911149403012814  0.38180752558532816  1.0000
  C   C19       1.0  0.7386818919964009  0.47608885051550526  0.8818075256525667  1.0000
  C   C20       1.0  0.7386818924757492  0.5239111493215309  0.3818075257225553  1.0000
  C   C21       1.0  0.178061430705553  0.9962813818684001  0.789070666768232  1.0000
  C   C22       1.0  0.1780614303558424  0.0037186179686360997  0.2890706668155109  1.0000
  C   C23       1.0  0.6780614304694419  0.496281381949882  0.789070666121638  1.0000
  C   C24       1.0  0.6780614301197313  0.5037186178871542  0.2890706661689169  1.0000
  C   C25       1.0  0.3268060015296138  0.03718910381245827  0.04645988007495959  1.0000
  C   C26       1.0  0.3268060018793244  0.9628108960245779  0.5464598800276808  1.0000
  C   C27       1.0  0.8268060021225615  0.5371891037309764  0.04645987945107536  1.0000
  C   C28       1.0  0.8268060016399845  0.4628108961060598  0.546459880142198  1.0000
  C   C29       1.0  0.27235866354948696  0.05111011673525361  0.9451049562857184  1.0000
  C   C30       1.0  0.2723586640288352  0.9488898838502151  0.4451049563557071  1.0000
  C   C31       1.0  0.7723586641392056  0.5511101166537716  0.9451049564229456  1.0000
  C   C32       1.0  0.772358663789495  0.44888988393169704  0.4451049564702244  1.0000
  C   C33       1.0  0.9040737574247139  0.08525139725547627  0.8283768989737973  1.0000
  C   C34       1.0  0.9040737570750033  0.9147486025815599  0.32837689902107614  1.0000
  C   C35       1.0  0.4040737568349951  0.5852513971739943  0.8283768988365703  1.0000
  C   C36       1.0  0.4040737573143433  0.41474860266304175  0.32837689890655886  1.0000
  C   C37       1.0  0.028450453651538872  0.25586330500410354  0.08691287750254324  1.0000
  C   C38       1.0  0.028450453172190658  0.7441366948329325  0.5869128774325546  1.0000
  C   C39       1.0  0.5284504534121988  0.7558633049226217  0.08691287761706054  1.0000
  C   C40       1.0  0.5284504529328506  0.24413669491441456  0.5869128775470719  1.0000
  C   C41       1.0  0.9504657257389255  0.0400742066349119  0.9175149458562402  1.0000
  C   C42       1.0  0.9504657262182736  0.9599257932021243  0.4175149459262288  1.0000
  C   C43       1.0  0.45046572597503654  0.54007420655343  0.9175149465028343  1.0000
  C   C44       1.0  0.4504657264543847  0.45992579328360617  0.41751494657282284  1.0000
  C   C45       1.0  0.017711213486876837  0.941188142108895  0.037773587679115934  1.0000
  C   C46       1.0  0.01771121300752863  0.05881185772814105  0.5377735876091273  1.0000
  C   C47       1.0  0.5177112132475369  0.441188142190377  0.03777358779363323  1.0000
  C   C48       1.0  0.5177112127681885  0.5588118576466592  0.5377735877236446  1.0000
  C   C49       1.0  0.9480787023371153  0.2489946817396976  0.913616798826164  1.0000
  C   C50       1.0  0.9480787028164636  0.7510053180973385  0.41361679889615266  1.0000
  C   C51       1.0  0.44807870257645543  0.7489946816582156  0.9136167987116467  1.0000
  C   C52       1.0  0.4480787022267449  0.2510053181788205  0.4136167987589255  1.0000
  C   C53       1.0  0.9930684599409462  0.09624719511159396  0.9983314640709593  1.0000
  C   C54       1.0  0.9930684595912356  0.9037528047254422  0.4983314641182381  1.0000
  C   C55       1.0  0.49306845935122756  0.5962471957785446  0.9983314639337321  1.0000
  C   C56       1.0  0.49306845983057573  0.4037528048069241  0.49833146400372075  1.0000
  C   C57       1.0  0.9292156793473481  0.8532534793296374  0.8878910618991586  1.0000
  C   C58       1.0  0.9292156798266961  0.1467465205073988  0.3878910619691472  1.0000
  C   C59       1.0  0.4292156795834591  0.3532534794111193  0.8878910625457526  1.0000
  C   C60       1.0  0.42921567923697734  0.646746520425917  0.3878910618319201  1.0000
  C   C61       1.0  0.8650755000918418  0.2432435394210825  0.7418909659625529  1.0000
  C   C62       1.0  0.86507549974536  0.7567564604159537  0.24189096524872045  1.0000
  C   C63       1.0  0.36507549950212304  0.7432435393396006  0.7418909658253257  1.0000
  C   C64       1.0  0.3650754999814713  0.25675646049743556  0.24189096589531445  1.0000
  N   N1        1.0  0.7319837785525026  0.08918297123722042  0.07457783944270041  1.0000
  N   N2        1.0  0.7319837789022131  0.9108170285998157  0.5745778393954216  1.0000
  N   N3        1.0  0.23198377878861381  0.5891829711557385  0.07457784008929443  1.0000
  N   N4        1.0  0.2319837783092656  0.41081702868129766  0.5745778400193058  1.0000
  N   N5        1.0  0.1593164908151182  0.0877204740976874  0.751662678543009  1.0000
  N   N6        1.0  0.15931649046540763  0.9122795257393488  0.2516626785902878  1.0000
  N   N7        1.0  0.6593164905757781  0.5877204740162055  0.7516626786575263  1.0000
  N   N8        1.0  0.6593164910551264  0.4122795258208306  0.25166267872751485  1.0000
  N   N9        1.0  0.9068006670694008  0.18955855190444357  0.83193833539369  1.0000
  N   N10       1.0  0.9068006667196902  0.8104414486810252  0.33193833544096873  1.0000
  N   N11       1.0  0.40680066730874087  0.6895585518229617  0.8319383352791727  1.0000
  N   N12       1.0  0.40680066695903033  0.3104414487625071  0.33193833532645145  1.0000
  N   N13       1.0  0.9901028906919992  0.19811770474741924  0.9985282297350617  1.0000
  N   N14       1.0  0.9901028903422886  0.801882295089617  0.49852822978234057  1.0000
  N   N15       1.0  0.49010289093133913  0.6981177046659374  0.9985282296205444  1.0000
  N   N16       1.0  0.4901028905816286  0.3018822951710988  0.49852822966782334  1.0000
  N   N17       1.0  0.03506705528449175  0.034853567550528104  0.07256072357847995  1.0000
  N   N18       1.0  0.035067055634202315  0.9651464322865081  0.5725607235312011  1.0000
  N   N19       1.0  0.5350670558742104  0.5348535674690462  0.07256072371570703  1.0000
  N   N20       1.0  0.5350670553948622  0.46514643236798997  0.5725607236457183  1.0000
  N   N21       1.0  0.9668849111434054  0.9407281539472276  0.9452652982905467  1.0000
  N   N22       1.0  0.9668849107936949  0.059271845889808564  0.4452652983378257  1.0000
  N   N23       1.0  0.4668849105504577  0.44072815402870946  0.9452652989144311  1.0000
  N   N24       1.0  0.4668849110330348  0.5592718458083267  0.44526529822330835  1.0000
  O   O1        1.0  0.7591026971554342  0.9202559482256667  0.08837135720268784  1.0000
  O   O2        1.0  0.7591026975051447  0.07974405161136938  0.588371357155409  1.0000
  O   O3        1.0  0.2591026973947743  0.4202559483071487  0.08837135708817055  1.0000
  O   O4        1.0  0.259102697741256  0.5797440515298875  0.588371357802003  1.0000
  O   O5        1.0  0.7299377682746722  0.2676011438278179  0.018302095058807547  1.0000
  O   O6        1.0  0.729937767792095  0.7323988560092182  0.5183020957499302  1.0000
  O   O7        1.0  0.2299377676817245  0.767601143746336  0.018302095682691782  1.0000
  O   O8        1.0  0.22993776803143504  0.23239885609070013  0.518302095635413  1.0000
  O   O9        1.0  0.5541997212779217  0.18832063094228438  0.06616651098565195  1.0000
  O   O10       1.0  0.5541997216244033  0.8116793688947519  0.5661665116994844  1.0000
  O   O11       1.0  0.05419972151403284  0.6883206308608025  0.06616651163224596  1.0000
  O   O12       1.0  0.054199721863743416  0.3116793689762337  0.5661665115849671  1.0000
  O   O13       1.0  0.6399819182512179  0.1466256164628297  0.9015379987837632  1.0000
  O   O14       1.0  0.6399819179047362  0.8533743833742065  0.4015379980699307  1.0000
  O   O15       1.0  0.13998191849055794  0.6466256163813477  0.9015379986692459  1.0000
  O   O16       1.0  0.13998191814084737  0.3533743834556884  0.40153799871652474  1.0000
  O   O17       1.0  0.3401936981522896  0.18149303899731295  0.7534576746035793  1.0000
  O   O18       1.0  0.3401936978025791  0.8185069608397232  0.25345767465085806  1.0000
  O   O19       1.0  0.8401936979129495  0.681493038915831  0.7534576747180965  1.0000
  O   O20       1.0  0.840193697563239  0.3185069609212052  0.2534576747653754  1.0000
  O   O21       1.0  0.25505669826823635  0.1498629937782042  0.9208142184209147  1.0000
  O   O22       1.0  0.2550566987475846  0.8501370068072646  0.4208142184909032  1.0000
  O   O23       1.0  0.7550566988579551  0.6498629936967223  0.9208142185581417  1.0000
  O   O24       1.0  0.7550566985082445  0.3501370061403139  0.42081421860542056  1.0000
  O   O25       1.0  0.1344572170355618  0.9190632677677824  0.7408525239711565  1.0000
  O   O26       1.0  0.13445721751491  0.08093673206925377  0.24085252404114518  1.0000
  O   O27       1.0  0.6344572176252805  0.4190632678492643  0.7408525241083838  1.0000
  O   O28       1.0  0.63445721727557  0.5809367319877718  0.24085252415566244  1.0000
  O   O29       1.0  0.16723998138046622  0.2680713997360758  0.7998204716635795  1.0000
  O   O30       1.0  0.16723998103075563  0.7319286001009604  0.29982047171085824  1.0000
  O   O31       1.0  0.667239981141126  0.7680713996545938  0.7998204717780968  1.0000
  O   O32       1.0  0.6672399816204744  0.2319286001824423  0.2998204718480853  1.0000
  O   O33       1.0  0.8649242593566999  0.03798803837962915  0.7531781521487054  1.0000
  O   O34       1.0  0.8649242590069893  0.962011961457407  0.2531781521959843  1.0000
  O   O35       1.0  0.36492425876698115  0.5379880382981472  0.7531781520114782  1.0000
  O   O36       1.0  0.3649242592463293  0.4620119615388889  0.25317815208146693  1.0000
  O   O37       1.0  0.946666042006685  0.34089266925611916  0.9101002420516309  1.0000
  O   O38       1.0  0.9466660416569745  0.6591073305809171  0.41010024209890966  1.0000
  O   O39       1.0  0.44666604141373745  0.8408926691746372  0.910100242675515  1.0000
  O   O40       1.0  0.44666604189631454  0.15910733066239896  0.4101002419843924  1.0000
  S   S1        1.0  0.6635072487072878  0.17904436667258067  0.025031439614340546  1.0000
  S   S2        1.0  0.6635072482279395  0.8209556331644554  0.5250314395443518  1.0000
  S   S3        1.0  0.16350724894662777  0.6790443665910988  0.02503143949982325  1.0000
  S   S4        1.0  0.16350724846727957  0.3209556332459374  0.5250314394298347  1.0000
  S   S5        1.0  0.23146636555231906  0.1779422016511447  0.796021428625079  1.0000
  S   S6        1.0  0.23146636520260852  0.8220577981858914  0.29602142867235787  1.0000
  S   S7        1.0  0.731466365312979  0.6779422015696628  0.7960214287395962  1.0000
  S   S8        1.0  0.7314663649632683  0.3220577982673734  0.29602142878687515  1.0000
