data_image0
_chemical_formula_structural       H72C128N24O4
_chemical_formula_sum              "H72 C128 N24 O4"
_cell_length_a       17.1869140917765
_cell_length_b       7.927414761158867
_cell_length_c       18.53304961083156
_cell_angle_alpha    90.0
_cell_angle_beta     112.76299850520766
_cell_angle_gamma    90.0

_space_group_name_H-M_alt    "P 1"
_space_group_IT_number       1

loop_
  _space_group_symop_operation_xyz
  'x, y, z'

loop_
  _atom_site_type_symbol
  _atom_site_label
  _atom_site_symmetry_multiplicity
  _atom_site_fract_x
  _atom_site_fract_y
  _atom_site_fract_z
  _atom_site_occupancy
  H   H1        1.0  0.4684820880590355  0.9734886608697961  0.2966022142663579  1.0000
  H   H2        1.0  0.031517911469575687  0.4734886609428885  0.7033977854380238  1.0000
  H   H3        1.0  0.5315179117449715  0.026511338984019164  0.703397785625034  1.0000
  H   H4        1.0  0.9684820883344312  0.5265113389109268  0.2966022144533681  1.0000
  H   H5        1.0  0.37644083581667936  0.3330869217209971  0.4047977950931924  1.0000
  H   H6        1.0  0.12355916434540598  0.8330869216479047  0.5952022053759283  1.0000
  H   H7        1.0  0.6235591639873275  0.6669130781328182  0.5952022047981995  1.0000
  H   H8        1.0  0.8764408360895791  0.16691307820591061  0.40479779473973465  1.0000
  H   H9        1.0  0.3369917888378127  0.227804168749713  0.5128365089298252  1.0000
  H   H10       1.0  0.16300821132427262  0.7278041686766207  0.48716349153929545  1.0000
  H   H11       1.0  0.6630082109661941  0.7721958311041024  0.4871634909615665  1.0000
  H   H12       1.0  0.8369917891107126  0.2721958311771947  0.5128365085763675  1.0000
  H   H13       1.0  0.32342830841476977  0.003602417794502439  0.5948740139404389  1.0000
  H   H14       1.0  0.1765716917473156  0.5036024177214101  0.4051259865286817  1.0000
  H   H15       1.0  0.6765716920202154  0.996397582059313  0.405125986175224  1.0000
  H   H16       1.0  0.8234283080591871  0.4963975821324052  0.5948740139031781  1.0000
  H   H17       1.0  0.33595326509198614  0.7003921438807548  0.6326124699696062  1.0000
  H   H18       1.0  0.16404673506760334  0.2003921439538471  0.36738752995904655  1.0000
  H   H19       1.0  0.6640467347120208  0.29960785597306056  0.36738752992178564  1.0000
  H   H20       1.0  0.8359532653673819  0.7996078558999682  0.6326124701566164  1.0000
  H   H21       1.0  0.39031359483900246  0.4932119155865175  0.56248804497701  1.0000
  H   H22       1.0  0.10968640532058703  0.9932119155134251  0.4375119549516427  1.0000
  H   H23       1.0  0.6096864055959827  0.506788085528743  0.43751195513865293  1.0000
  H   H24       1.0  0.8903135944834198  0.006788085601835411  0.5624880449397491  1.0000
  H   H25       1.0  0.433686186870659  0.5898645372903922  0.45574676118777824  1.0000
  H   H26       1.0  0.06631381328893053  0.08986453736348457  0.5442532387408746  1.0000
  H   H27       1.0  0.5663138135643262  0.4101354625634231  0.5442532389278848  1.0000
  H   H28       1.0  0.9336861865150764  0.9101354624903307  0.4557467611505174  1.0000
  H   H29       1.0  0.4656091552735017  0.5094488041407356  0.31588387019203074  1.0000
  H   H30       1.0  0.03439084488608778  0.009448804213827976  0.6841161297366221  1.0000
  H   H31       1.0  0.5343908445305051  0.4905511957130797  0.6841161296993612  1.0000
  H   H32       1.0  0.9656091555488975  0.9905511969014327  0.3158838703790409  1.0000
  H   H33       1.0  0.49954374299609083  0.3051121270771527  0.23247985959562092  1.0000
  H   H34       1.0  0.00045625653252035435  0.8051121270040604  0.7675201401087607  1.0000
  H   H35       1.0  0.5004562568079161  0.6948878727766626  0.7675201402957709  1.0000
  H   H36       1.0  0.9995437432714865  0.19488787284975498  0.2324798597826311  1.0000
  H   H37       1.0  0.544222793951564  0.40600813720127477  0.12593065506832138  1.0000
  H   H38       1.0  0.9557772061278386  0.9060081371281824  0.8740693450100806  1.0000
  H   H39       1.0  0.4557772058524429  0.5939918626525406  0.8740693448230705  1.0000
  H   H40       1.0  0.044222794307146596  0.09399186272563288  0.12593065510558227  1.0000
  H   H41       1.0  0.5200457911640204  0.05792245944412723  0.22706899319409599  1.0000
  H   H42       1.0  0.9799542089153822  0.5579224593710349  0.7729310068843062  1.0000
  H   H43       1.0  0.4799542092709648  0.942077540409688  0.772931006921567  1.0000
  H   H44       1.0  0.020045790888624685  0.4420775404827805  0.22706899300708575  1.0000
  H   H45       1.0  0.5655902493163011  0.14814514509246135  0.1223183982810248  1.0000
  H   H46       1.0  0.9344097501321231  0.648145145019369  0.8776816015731062  1.0000
  H   H47       1.0  0.43440975048770575  0.851854854761354  0.877681601610367  1.0000
  H   H48       1.0  0.06559024967188373  0.35185485483444634  0.12231839831828568  1.0000
  H   H49       1.0  0.5925602682794313  0.9397805317948218  0.035659443534507285  1.0000
  H   H50       1.0  0.9074397311689929  0.43978053186791416  0.9643405563196236  1.0000
  H   H51       1.0  0.40743973152457547  0.0602194680589935  0.9643405563568844  1.0000
  H   H52       1.0  0.09256026863501401  0.5602194679859012  0.03565944357176819  1.0000
  H   H53       1.0  0.5764907148218845  0.633287740235015  0.05538883408228755  1.0000
  H   H54       1.0  0.9235092852575181  0.1332877403081074  0.9446111659961145  1.0000
  H   H55       1.0  0.42350928561310064  0.3667122596188003  0.9446111660333754  1.0000
  H   H56       1.0  0.07649071454648883  0.866712259545708  0.05538883389527732  1.0000
  H   H57       1.0  0.2498049435534562  0.6047469376131367  0.2677313659741886  1.0000
  H   H58       1.0  0.2501950566061333  0.10474693768622903  0.7322686339544641  1.0000
  H   H59       1.0  0.750195056881529  0.39525306224067863  0.7322686341414744  1.0000
  H   H60       1.0  0.7498049431978736  0.8952530621675863  0.2677313659369277  1.0000
  H   H61       1.0  0.29326010526492985  0.4344073816943293  0.18062365027906357  1.0000
  H   H62       1.0  0.20673989489465963  0.934407381621237  0.8193763496495892  1.0000
  H   H63       1.0  0.7067398945390769  0.565592618159486  0.8193763496123282  1.0000
  H   H64       1.0  0.7932601049093473  0.06559261823257838  0.18062365024180269  1.0000
  H   H65       1.0  0.3363464106804431  0.8913869165295196  0.07038294774359362  1.0000
  H   H66       1.0  0.16365358884816805  0.39138691660261193  0.929617051960788  1.0000
  H   H67       1.0  0.6636535891235639  0.10861308332429574  0.9296170521477981  1.0000
  H   H68       1.0  0.8363464109558387  0.6086130832512034  0.07038294793060385  1.0000
  H   H69       1.0  0.2924146047511525  0.06150312992185691  0.15744687635267257  1.0000
  H   H70       1.0  0.20758539477745866  0.5615031298487646  0.842553123351709  1.0000
  H   H71       1.0  0.7075853950528544  0.9384968699319585  0.8425531235387193  1.0000
  H   H72       1.0  0.7924146050265483  0.4384968700050508  0.1574468765396828  1.0000
  C   C1        1.0  0.4253084275992498  0.909464304217388  0.4008296064523495  1.0000
  C   C2        1.0  0.07469157256033968  0.40946430429048036  0.5991703934763032  1.0000
  C   C3        1.0  0.5746915722047571  0.09053569563642729  0.5991703934390423  1.0000
  C   C4        1.0  0.9253084278746455  0.590535695563335  0.40082960663935974  1.0000
  C   C5        1.0  0.41751820167797105  0.09004025921505529  0.37962135790498974  1.0000
  C   C6        1.0  0.08248179848161843  0.590040259141963  0.620378642023663  1.0000
  C   C7        1.0  0.5824817987570142  0.9099597406387601  0.6203786422106732  1.0000
  C   C8        1.0  0.9175182013223885  0.4099597407118523  0.3796213578677288  1.0000
  C   C9        1.0  0.38443568949974233  0.20112639341289132  0.4225815285669199  1.0000
  C   C10       1.0  0.11556431066234303  0.701126393339799  0.5774184719022009  1.0000
  C   C11       1.0  0.6155643109352429  0.798873606440924  0.5774184715487432  1.0000
  C   C12       1.0  0.8844356891441597  0.29887360651401634  0.4225815285296589  1.0000
  C   C13       1.0  0.36259356713056257  0.14265662313279542  0.48132969055559893  1.0000
  C   C14       1.0  0.1374064324005444  0.6426566230597032  0.5186703096892507  1.0000
  C   C15       1.0  0.6374064326759401  0.8573433767210199  0.518670309876261  1.0000
  C   C16       1.0  0.8625935674034624  0.3573433767941122  0.4813296902021411  1.0000
  C   C17       1.0  0.3712610214331731  0.9680370399691531  0.5043115164177457  1.0000
  C   C18       1.0  0.1287389787289123  0.46803704004224544  0.49568848405137494  1.0000
  C   C19       1.0  0.6287389783733297  0.031962959884662225  0.4956884840141141  1.0000
  C   C20       1.0  0.8712610210750946  0.5319629598115698  0.5043115158400169  1.0000
  C   C21       1.0  0.4026241001179142  0.8502871141580879  0.46435293070896383  1.0000
  C   C22       1.0  0.09737590004417115  0.35028711423118025  0.5356470697601567  1.0000
  C   C23       1.0  0.597375900317071  0.14971288569572747  0.5356470694066992  1.0000
  C   C24       1.0  0.9026240997598356  0.6497128856226352  0.464352930131235  1.0000
  C   C25       1.0  0.34757536531530364  0.911668821140815  0.5650037450434682  1.0000
  C   C26       1.0  0.15242463421330754  0.4116688212139074  0.4349962546609134  1.0000
  C   C27       1.0  0.6524246344887032  0.08833117871300025  0.4349962548479237  1.0000
  C   C28       1.0  0.8475753655906992  0.5883311786399079  0.5650037452304784  1.0000
  C   C29       1.0  0.354490363266046  0.7424133803161376  0.5856870568762073  1.0000
  C   C30       1.0  0.14550963689354354  0.24241338038922983  0.41431294305244554  1.0000
  C   C31       1.0  0.6455096371689393  0.2575866195376778  0.4143129432394557  1.0000
  C   C32       1.0  0.8544903629104632  0.7575866194645855  0.5856870568389462  1.0000
  C   C33       1.0  0.38526674633951535  0.6260210345389479  0.5461470269829645  1.0000
  C   C34       1.0  0.11473325382007411  0.1260210346120402  0.45385297294568827  1.0000
  C   C35       1.0  0.6147332534644915  0.37397896531486746  0.45385297290842735  1.0000
  C   C36       1.0  0.8852667459839327  0.8739789652417751  0.5461470269457036  1.0000
  C   C37       1.0  0.40923596213424734  0.6792340608166765  0.4863838497528508  1.0000
  C   C38       1.0  0.09076403802534216  0.17923406088976876  0.5136161501758019  1.0000
  C   C39       1.0  0.590764038300738  0.3207659390371389  0.5136161503628122  1.0000
  C   C40       1.0  0.9092359617786647  0.8207659389640466  0.4863838497155899  1.0000
  C   C41       1.0  0.4934305740636287  0.7273946417251729  0.2606727889757233  1.0000
  C   C42       1.0  0.006569425464982421  0.22739464179826516  0.7393272107286584  1.0000
  C   C43       1.0  0.5065694257403782  0.27260535812864256  0.7393272109156684  1.0000
  C   C44       1.0  0.9934305743390245  0.7726053580555502  0.26067278916273356  1.0000
  C   C45       1.0  0.4863698243946442  0.5537750164794264  0.2707944050520135  1.0000
  C   C46       1.0  0.013630175133966936  0.05377501655251881  0.729205594652368  1.0000
  C   C47       1.0  0.5136301754093627  0.4462249833743888  0.7292055948393783  1.0000
  C   C48       1.0  0.98636982467004  0.9462249833012965  0.27079440523902376  1.0000
  C   C49       1.0  0.5058482582766627  0.4389227389802104  0.22326273936437388  1.0000
  C   C50       1.0  0.9941517418027399  0.9389227389071181  0.7767372607140282  1.0000
  C   C51       1.0  0.4941517415273442  0.561077260873605  0.776737260527018  1.0000
  C   C52       1.0  0.005848258632245269  0.06107726094669728  0.22326273940163477  1.0000
  C   C53       1.0  0.5297097855507447  0.4948767572023069  0.16388755213449518  1.0000
  C   C54       1.0  0.9702902145286579  0.9948767571292146  0.8361124479439068  1.0000
  C   C55       1.0  0.4702902148842406  0.5051232426515084  0.8361124479811678  1.0000
  C   C56       1.0  0.029709785275348895  0.005123242724600781  0.16388755194748494  1.0000
  C   C57       1.0  0.538245169212089  0.6694985452261287  0.1522871016721667  1.0000
  C   C58       1.0  0.9617548308673135  0.16949854529922107  0.8477128984062353  1.0000
  C   C59       1.0  0.4617548305919178  0.33050145462768654  0.8477128982192251  1.0000
  C   C60       1.0  0.03824516956767168  0.8305014545545942  0.15228710170942758  1.0000
  C   C61       1.0  0.5206793009166664  0.7903451274806386  0.20157310901441772  1.0000
  C   C62       1.0  0.9793206991627362  0.2903451275537309  0.7984268910639843  1.0000
  C   C63       1.0  0.4793206988898365  0.20965487237317681  0.798426891417442  1.0000
  C   C64       1.0  0.020679301272248915  0.7096548735615298  0.20157310905167863  1.0000
  C   C65       1.0  0.5311545331927627  0.9633989844229557  0.18951610280918357  1.0000
  C   C66       1.0  0.96884546688664  0.46339898449604805  0.8104838972692185  1.0000
  C   C67       1.0  0.4688454672422226  0.03660101543085962  0.8104838973064794  1.0000
  C   C68       1.0  0.031154532917366917  0.5366010153577673  0.18951610262217333  1.0000
  C   C69       1.0  0.5564287950374582  0.015191578040051355  0.13074479922753585  1.0000
  C   C70       1.0  0.9435712044109661  0.515191577966959  0.8692552006265951  1.0000
  C   C71       1.0  0.4435712047665487  0.984808421813764  0.869255200663856  1.0000
  C   C72       1.0  0.0564287953930408  0.4848084218868563  0.13074479926479673  1.0000
  C   C73       1.0  0.5725947265319868  0.8966795297286638  0.08163378138508467  1.0000
  C   C74       1.0  0.9274052735474158  0.39667952980175614  0.9183662186933175  1.0000
  C   C75       1.0  0.42740527327202  0.10332047012515154  0.9183662185063072  1.0000
  C   C76       1.0  0.07259472625659118  0.6033204700520592  0.08163378119807445  1.0000
  C   C77       1.0  0.5637640790233083  0.7268605621888347  0.0923783320728406  1.0000
  C   C78       1.0  0.9362359210560942  0.22686056226192697  0.9076216680055614  1.0000
  C   C79       1.0  0.4362359214116769  0.27313943766498067  0.9076216680428223  1.0000
  C   C80       1.0  0.06376407874791261  0.7731394375918884  0.09237833188583042  1.0000
  C   C81       1.0  0.2669660742617635  0.8467536053353572  0.21898062082336248  1.0000
  C   C82       1.0  0.233033925897826  0.3467536054084496  0.7810193791052903  1.0000
  C   C83       1.0  0.7330339255422433  0.15324639451845812  0.7810193790680294  1.0000
  C   C84       1.0  0.7669660745371593  0.6532463944453657  0.21898062101037266  1.0000
  C   C85       1.0  0.2693976185208668  0.6669563848110158  0.22512542797951207  1.0000
  C   C86       1.0  0.23060238163872268  0.16695638488410813  0.7748745719491407  1.0000
  C   C87       1.0  0.73060238128314  0.3330436150427995  0.7748745719118798  1.0000
  C   C88       1.0  0.7693976187962626  0.8330436149697071  0.22512542816652228  1.0000
  C   C89       1.0  0.2938889626940885  0.5713600885615666  0.17634448479962977  1.0000
  C   C90       1.0  0.20611103683701854  0.0713600886346589  0.8236555154452199  1.0000
  C   C91       1.0  0.7061110371124143  0.42863991129224877  0.82365551563223  1.0000
  C   C92       1.0  0.7938889629669884  0.9286399112191565  0.17634448444617207  1.0000
  C   C93       1.0  0.3171172996857166  0.6486871678766885  0.11760927735  1.0000
  C   C94       1.0  0.18288269984539043  0.14868716668833554  0.8823907228948495  1.0000
  C   C95       1.0  0.6828827001182902  0.3513128332385721  0.8823907225413918  1.0000
  C   C96       1.0  0.8171172999586164  0.8513128331654798  0.11760927699654224  1.0000
  C   C97       1.0  0.31677601418492396  0.8289636026359926  0.11297072578233948  1.0000
  C   C98       1.0  0.18322398597466552  0.32896360270908487  0.8870292741463133  1.0000
  C   C99       1.0  0.6832239862500612  0.17103639721782282  0.8870292743333236  1.0000
  C   C100      1.0  0.8167760138293414  0.6710363971447305  0.1129707257450786  1.0000
  C   C101      1.0  0.29252742504914253  0.9245503699277329  0.16189592760321753  1.0000
  C   C102      1.0  0.20747257511044692  0.4245503700008252  0.8381040723254352  1.0000
  C   C103      1.0  0.7074725753858426  0.07544962992608248  0.8381040725124453  1.0000
  C   C104      1.0  0.7925274246935599  0.5754496298529902  0.16189592756595658  1.0000
  C   C105      1.0  0.23982574479115135  0.9462071477263633  0.26775429004210194  1.0000
  C   C106      1.0  0.26017425536843813  0.44620714653801025  0.7322457098865508  1.0000
  C   C107      1.0  0.7601742550128555  0.0537928533888974  0.7322457098492898  1.0000
  C   C108      1.0  0.7398257444355687  0.5537928533158051  0.267754290004841  1.0000
  C   C109      1.0  0.2135334928556638  0.8722562636534955  0.3239713896827834  1.0000
  C   C110      1.0  0.2864665066729474  0.3722562637265878  0.6760286100215982  1.0000
  C   C111      1.0  0.7864665069483431  0.12774373620031987  0.6760286102086084  1.0000
  C   C112      1.0  0.7135334931310594  0.6277437361272276  0.32397138986979357  1.0000
  C   C113      1.0  0.2312439898468943  0.123498487148272  0.25926610704155467  1.0000
  C   C114      1.0  0.2687560103126952  0.6234984870751797  0.740733892887098  1.0000
  C   C115      1.0  0.7687560099571126  0.8765015127055433  0.7407338928498371  1.0000
  C   C116      1.0  0.7312439901222901  0.3765015127786357  0.2592661072285649  1.0000
  C   C117      1.0  0.3387235498459736  0.5495474112626281  0.06517114120270472  1.0000
  C   C118      1.0  0.16127645031361595  0.049547411335720395  0.9348288587259481  1.0000
  C   C119      1.0  0.6612764505890116  0.45045258859118725  0.9348288589129582  1.0000
  C   C120      1.0  0.838723549490391  0.950452588518095  0.06517114116544384  1.0000
  C   C121      1.0  0.3389286828861177  0.3709624812881752  0.06668211251056495  1.0000
  C   C122      1.0  0.16107131664249344  0.8709624812150829  0.9333178871938167  1.0000
  C   C123      1.0  0.6610713169178891  0.6290375198270854  0.9333178873808269  1.0000
  C   C124      1.0  0.8389286831615135  0.12903751990017773  0.06668211269757512  1.0000
  C   C125      1.0  0.35922527849979297  0.6237390585675839  0.0054849178014569535  1.0000
  C   C126      1.0  0.14077472103131408  0.12373905864067632  0.9945150824433926  1.0000
  C   C127      1.0  0.6407747213067098  0.3762609412862314  0.9945150826304028  1.0000
  C   C128      1.0  0.8592252787726927  0.876260941213139  0.005484917447999193  1.0000
  N   N1        1.0  0.45112344653562797  0.7918080003527405  0.36360350346420806  1.0000
  N   N2        1.0  0.04887655362396148  0.2918080004258328  0.6363964964644446  1.0000
  N   N3        1.0  0.5488765532683788  0.20819200076252012  0.6363964964271838  1.0000
  N   N4        1.0  0.9511234461800454  0.7081920006894278  0.3636035034269471  1.0000
  N   N5        1.0  0.4725068230459572  0.8416331264373834  0.3060936340725626  1.0000
  N   N6        1.0  0.0274931764851498  0.3416331265104757  0.6939063661722868  1.0000
  N   N7        1.0  0.5274931767580497  0.1583668734164319  0.6939063658188293  1.0000
  N   N8        1.0  0.9725068233188571  0.6583668733433395  0.3060936337191049  1.0000
  N   N9        1.0  0.22376582577807547  0.27012281866364257  0.2533593596270897  1.0000
  N   N10       1.0  0.2762341743840099  0.7701228185905502  0.746640640842031  1.0000
  N   N11       1.0  0.7762341740259314  0.7298771811901728  0.7466406402643021  1.0000
  N   N12       1.0  0.7237658260534712  0.22987718126326506  0.25335935981409996  1.0000
  N   N13       1.0  0.19181217492442254  0.8100256065145365  0.37032126339150157  1.0000
  N   N14       1.0  0.30818782523766286  0.3100256065876288  0.6296787370776191  1.0000
  N   N15       1.0  0.8081878255105627  0.18997439333927887  0.6296787367241614  1.0000
  N   N16       1.0  0.691812174566344  0.6899743932661866  0.3703212628137727  1.0000
  N   N17       1.0  0.3771514639087224  0.683426723998985  0.9562549985509151  1.0000
  N   N18       1.0  0.12284853625336296  0.1834267240720773  0.043745001918205566  1.0000
  N   N19       1.0  0.6228485365262628  0.31657327585483036  0.043745001564747865  1.0000
  N   N20       1.0  0.877151463550644  0.816573275781738  0.9562549979731864  1.0000
  N   N21       1.0  0.3395990982134243  0.22329331230062105  0.06615763862243618  1.0000
  N   N22       1.0  0.1604009013151868  0.7232933122275287  0.9338423610819455  1.0000
  N   N23       1.0  0.6604009015905824  0.7767066875531943  0.9338423612689556  1.0000
  N   N24       1.0  0.8395990984888201  0.2767066876262866  0.06615763880944642  1.0000
  O   O1        1.0  0.4376846101325593  0.14477727286622033  0.3246589337544418  1.0000
  O   O2        1.0  0.06231539002703017  0.644777272793128  0.6753410661742109  1.0000
  O   O3        1.0  0.5623153903024259  0.855222726987595  0.6753410663612212  1.0000
  O   O4        1.0  0.9376846097769768  0.3552227270606873  0.3246589337171809  1.0000
