data_image0
_chemical_formula_structural       C44S4Cl18
_chemical_formula_sum              "C44 S4 Cl18"
_cell_length_a       9.131825228547862
_cell_length_b       10.35439170451548
_cell_length_c       12.070430986250747
_cell_angle_alpha    86.49825074993565
_cell_angle_beta     88.71199050051209
_cell_angle_gamma    75.35349084256738

_space_group_name_H-M_alt    "P 1"
_space_group_IT_number       1

loop_
  _space_group_symop_operation_xyz
  'x, y, z'

loop_
  _atom_site_type_symbol
  _atom_site_label
  _atom_site_symmetry_multiplicity
  _atom_site_fract_x
  _atom_site_fract_y
  _atom_site_fract_z
  _atom_site_occupancy
  C   C1        1.0  0.03186227015442369  0.25371739838140406  0.8732314701713502  1.0000
  C   C2        1.0  0.9681377306822313  0.746282601518113  0.12676852993015916  1.0000
  C   C3        1.0  0.21444694427948083  0.7664749284982822  0.4779919208982836  1.0000
  C   C4        1.0  0.7855530554619469  0.23352507140175316  0.5220080792034746  1.0000
  C   C5        1.0  0.11171719924546247  0.5407175761325649  0.5586323164659742  1.0000
  C   C6        1.0  0.8882828004959653  0.4592824237674706  0.4413676836357839  1.0000
  C   C7        1.0  0.1076608753647574  0.7226577346092152  0.4156799295217073  1.0000
  C   C8        1.0  0.8923391243766703  0.27734226529082034  0.5843200705800509  1.0000
  C   C9        1.0  0.23513554003776826  0.5735915025737245  0.6126851996877268  1.0000
  C   C10       1.0  0.7648644594180509  0.4264084983245073  0.38731480041424793  1.0000
  C   C11       1.0  0.04252574925427107  0.7964273889993676  0.31792808294483954  1.0000
  C   C12       1.0  0.9574742504871566  0.2035726109006679  0.6820719171569185  1.0000
  C   C13       1.0  0.05626862873985986  0.6084680876930332  0.4566629228674134  1.0000
  C   C14       1.0  0.9437313710015677  0.3915319122070024  0.5433370772343447  1.0000
  C   C15       1.0  0.20361139160387529  0.39865708452755305  0.887567172609962  1.0000
  C   C16       1.0  0.7963886078519438  0.6013429163706788  0.11243282749201289  1.0000
  C   C17       1.0  0.10459175361368707  0.3690648328456498  0.7086477347951138  1.0000
  C   C18       1.0  0.8954082461277407  0.6309351670543858  0.2913522653066442  1.0000
  C   C19       1.0  0.05767397930134245  0.43052822468501645  0.6009217547646512  1.0000
  C   C20       1.0  0.9423260215353125  0.5694717752145005  0.39907824533685804  1.0000
  C   C21       1.0  0.29826619571202323  0.4970972010222894  0.7100076195405778  1.0000
  C   C22       1.0  0.7017338037437959  0.5029027998759423  0.2899923805613971  1.0000
  C   C23       1.0  0.9652976182648183  0.729674716904682  0.24365220561552456  1.0000
  C   C24       1.0  0.03470238147660919  0.2703252829953536  0.7563477944862336  1.0000
  C   C25       1.0  0.3026167956920997  0.6717872779835723  0.560862266303533  1.0000
  C   C26       1.0  0.6973832040493281  0.32821272191646317  0.4391377337982251  1.0000
  C   C27       1.0  0.4492796023662581  0.49376169830945466  0.7353446424393142  1.0000
  C   C28       1.0  0.5507203984782383  0.5062383016475852  0.2646553568321525  1.0000
  C   C29       1.0  0.11493406960645734  0.3180227746404082  0.9383266409426058  1.0000
  C   C30       1.0  0.8850659312301974  0.6819772252591088  0.061673359158903575  1.0000
  C   C31       1.0  0.20694931830908453  0.4188672853900655  0.770882169109339  1.0000
  C   C32       1.0  0.7930506814323433  0.5811327145099701  0.22911783099241897  1.0000
  C   C33       1.0  0.0479776103240793  0.9315658011943003  0.3037461888545559  1.0000
  C   C34       1.0  0.9520223894173482  0.06843419870573535  0.6962538112472022  1.0000
  C   C35       1.0  0.13378398600435795  0.9840204616249439  0.37632646047233254  1.0000
  C   C36       1.0  0.8662160137370696  0.01597953827509151  0.6236735396294256  1.0000
  C   C37       1.0  0.21860654391274156  0.9017617806646433  0.461741942632174  1.0000
  C   C38       1.0  0.7813934569239133  0.09823821923487377  0.5382580574693353  1.0000
  C   C39       1.0  0.45447632001338617  0.6640937616286001  0.5870984502417538  1.0000
  C   C40       1.0  0.5455236797280414  0.3359062382714354  0.41290154986000427  1.0000
  C   C41       1.0  0.5262533020390234  0.577244411735424  0.674869530011037  1.0000
  C   C42       1.0  0.47374669879763154  0.422755588164093  0.3251304700904723  1.0000
  C   C43       1.0  0.46711273667657077  0.9286730613655904  0.8423889757051262  1.0000
  C   C44       1.0  0.5328872630648569  0.07132693853444509  0.1576110243966319  1.0000
  S   S1        1.0  0.4958014734477894  0.05813740816784994  0.7838002187398574  1.0000
  S   S2        1.0  0.5041985273888653  0.9418625917316671  0.2161997813616519  1.0000
  S   S3        1.0  0.43882590557106105  0.7992051672799041  0.9009997341283577  1.0000
  S   S4        1.0  0.5611740952655938  0.20079483261961287  0.09900026597315166  1.0000
  Cl  Cl1       1.0  0.3035069317285854  0.9761203888606667  0.5562504426548474  1.0000
  Cl  Cl2       1.0  0.6964930691080695  0.023879611038850408  0.4437495574466619  1.0000
  Cl  Cl3       1.0  0.13181646589448126  0.1498911012460657  0.3631638012692155  1.0000
  Cl  Cl4       1.0  0.8681835338469464  0.85010889865397  0.6368361988325426  1.0000
  Cl  Cl5       1.0  0.2824977242737383  0.4898426812363854  0.9720540826447117  1.0000
  Cl  Cl6       1.0  0.7175022754676893  0.5101573186636501  0.02794591745704624  1.0000
  Cl  Cl7       1.0  0.5643305612071217  0.7398735956197076  0.5012110625895025  1.0000
  Cl  Cl8       1.0  0.4356694385343059  0.260126404280328  0.4987889375122555  1.0000
  Cl  Cl9       1.0  0.10475264454399107  0.30027573014255127  0.07991730485512633  1.0000
  Cl  Cl10      1.0  0.8952473551974366  0.6997242697574844  0.9200826952466317  1.0000
  Cl  Cl11      1.0  0.7089320268072794  0.5713319427534626  0.7076417929853182  1.0000
  Cl  Cl12      1.0  0.29106797293414827  0.42866805714657286  0.29235820711644006  1.0000
  Cl  Cl13      1.0  0.9061614134089385  0.1763709152491391  0.9394752534316535  1.0000
  Cl  Cl14      1.0  0.09383858633248915  0.8236290846508963  0.06052474667010465  1.0000
  Cl  Cl15      1.0  0.5547640140290746  0.369928385202957  0.8233595160038842  1.0000
  Cl  Cl16      1.0  0.445235985712353  0.6300716146970785  0.17664048409787395  1.0000
  Cl  Cl17      1.0  0.9307580725126373  0.04124768432081433  0.21252985100039035  1.0000
  Cl  Cl18      1.0  0.06924192832401763  0.9587523155787027  0.7874701491011189  1.0000
