data_image0
_chemical_formula_structural       H68C46O20Cl2
_chemical_formula_sum              "H68 C46 O20 Cl2"
_cell_length_a       11.548173058991448
_cell_length_b       4.458844452579696
_cell_length_c       22.690198368878942
_cell_angle_alpha    90.0
_cell_angle_beta     92.10966428596154
_cell_angle_gamma    90.0

_space_group_name_H-M_alt    "P 1"
_space_group_IT_number       1

loop_
  _space_group_symop_operation_xyz
  'x, y, z'

loop_
  _atom_site_type_symbol
  _atom_site_label
  _atom_site_symmetry_multiplicity
  _atom_site_fract_x
  _atom_site_fract_y
  _atom_site_fract_z
  _atom_site_occupancy
  H   H1        1.0  0.5015499835038312  0.31060052996438237  0.835585264000112  1.0000
  H   H2        1.0  0.4984500162255919  0.810600528553737  0.1644147360175455  1.0000
  H   H3        1.0  0.49624836445176423  0.5528451880786798  0.9487804859410427  1.0000
  H   H4        1.0  0.5037516352776588  0.05284518724659154  0.05121951407661484  1.0000
  H   H5        1.0  0.06321127267744313  0.33446507404786946  0.8995471252938393  1.0000
  H   H6        1.0  0.93678872705198  0.8344650748799577  0.10045287472381817  1.0000
  H   H7        1.0  0.7973201810223527  0.4216982830410571  0.961020140381278  1.0000
  H   H8        1.0  0.20267981870707044  0.9216982838731452  0.03897985963637936  1.0000
  H   H9        1.0  0.6198241870273641  0.8691341358090879  0.910697440650133  1.0000
  H   H10       1.0  0.38017581270205897  0.3691341349769997  0.08930255936752425  1.0000
  H   H11       1.0  0.8583064908460818  0.007801366558071979  0.8971829762918986  1.0000
  H   H12       1.0  0.14169350888334126  0.5078013673901602  0.10281702372575902  1.0000
  H   H13       1.0  0.6858490300608602  0.2531654337811471  0.8619893088529339  1.0000
  H   H14       1.0  0.3141509696685628  0.7531654346132353  0.1380106911647236  1.0000
  H   H15       1.0  0.7266557716307523  0.8810792934763811  0.8121517804429771  1.0000
  H   H16       1.0  0.27334422809867076  0.3810792926442929  0.18784821957468034  1.0000
  H   H17       1.0  0.054981035969247374  0.818004146318627  0.9020893128469566  1.0000
  H   H18       1.0  0.9450189637601757  0.31800414548653877  0.09791068717070096  1.0000
  H   H19       1.0  0.9944939561956956  0.8018705514455472  0.973460739945649  1.0000
  H   H20       1.0  0.00550604353372741  0.301870550613459  0.026539260072008512  1.0000
  H   H21       1.0  0.6154390543859394  0.7685724623152791  0.7202787768596662  1.0000
  H   H22       1.0  0.38456094534348373  0.2685724614831909  0.27972122315799125  1.0000
  H   H23       1.0  0.9097522019864207  0.9914756495805306  0.6803211032959326  1.0000
  H   H24       1.0  0.09024779774300232  0.49147564874844246  0.3196788967217248  1.0000
  H   H25       1.0  0.9003891032083116  0.21002340627922184  0.7797663788973198  1.0000
  H   H26       1.0  0.09961089652111131  0.7100234071113101  0.2202336211203375  1.0000
  H   H27       1.0  0.46531178212213825  0.37240689996245624  0.7072784899764091  1.0000
  H   H28       1.0  0.5346882176072848  0.8724069007945444  0.29272151004124836  1.0000
  H   H29       1.0  0.29065585798933097  0.05521356320415389  0.7092284824575157  1.0000
  H   H30       1.0  0.7093441417400921  0.5552135640362421  0.2907715175601418  1.0000
  H   H31       1.0  0.2979049445964614  0.9441058092000706  0.5204196811483787  1.0000
  H   H32       1.0  0.7020950551329616  0.4441058083679824  0.47958031886927877  1.0000
  H   H33       1.0  0.47184449824540314  0.2648480301475358  0.5188411709137482  1.0000
  H   H34       1.0  0.5281555014840199  0.7648480309796241  0.48115882910390934  1.0000
  H   H35       1.0  0.10823721395220882  0.8571352355179942  0.5368307426991373  1.0000
  H   H36       1.0  0.8917627866427407  0.357135234685906  0.46316925731358344  1.0000
  H   H37       1.0  0.19767254548968546  0.5347747819775241  0.5489428369684988  1.0000
  H   H38       1.0  0.802327455105264  0.03477478114543593  0.4510571630442222  1.0000
  H   H39       1.0  0.9888822529513731  0.3904743344416724  0.5474212497356905  1.0000
  H   H40       1.0  0.011117747643576485  0.8904743352737606  0.4525787502770305  1.0000
  H   H41       1.0  0.05314527145931939  0.3265876586382158  0.6185715656075016  1.0000
  H   H42       1.0  0.9468547291356302  0.826587659470304  0.3814284344052194  1.0000
  H   H43       1.0  0.9623136613434463  0.6450925549411928  0.6053123222066894  1.0000
  H   H44       1.0  0.03768633838597677  0.14509255635183804  0.39468767781096803  1.0000
  H   H45       1.0  0.6195807040593586  0.5455549225523294  0.5662302946855597  1.0000
  H   H46       1.0  0.38041929567006433  0.04555492396297479  0.43376970533209763  1.0000
  H   H47       1.0  0.5580419452729304  0.7807223254863653  0.6191996508338631  1.0000
  H   H48       1.0  0.4419580544564925  0.28072232465427716  0.38080034918379435  1.0000
  H   H49       1.0  0.3152774877345859  0.540860919381196  0.9609588655371303  1.0000
  H   H50       1.0  0.684722511994837  0.04086091854910777  0.039041134480527206  1.0000
  H   H51       1.0  0.3818504634993995  0.8256604012885103  0.9820865932414558  1.0000
  H   H52       1.0  0.6181495362300237  0.32566040269915564  0.017913406776201686  1.0000
  H   H53       1.0  0.47008221675788536  0.8226857628724233  0.8326425732531234  1.0000
  H   H54       1.0  0.5299177829715377  0.32268576204033506  0.16735742676453413  1.0000
  H   H55       1.0  0.38840336770781914  0.9551187118752447  0.8785177300375961  1.0000
  H   H56       1.0  0.6115966320216039  0.45511871328589  0.12148226998006134  1.0000
  H   H57       1.0  0.9873851543750211  0.6866842390585218  0.7997375925476141  1.0000
  H   H58       1.0  0.012614845354401969  0.18668423822643362  0.2002624074700434  1.0000
  H   H59       1.0  0.10720365723343736  0.06699208128401538  0.8169445911826446  1.0000
  H   H60       1.0  0.8927963424959856  0.5669920821161035  0.18305540883501278  1.0000
  H   H61       1.0  0.08408266145700737  0.39465799462502044  0.7308569925138547  1.0000
  H   H62       1.0  0.9159173391379422  0.8946579954571087  0.2691430074988662  1.0000
  H   H63       1.0  0.1846173509032346  0.690130127374072  0.7260277231337006  1.0000
  H   H64       1.0  0.8153826488261883  0.19013012654198377  0.2739722768839569  1.0000
  H   H65       1.0  0.23740091170792785  0.6121839613446823  0.8358985268532849  1.0000
  H   H66       1.0  0.7625990888870218  0.11218396051259412  0.16410147315943602  1.0000
  H   H67       1.0  0.27850451236002527  0.3165200120814878  0.7888638002521113  1.0000
  H   H68       1.0  0.7214954873693977  0.8165200129135759  0.21113619976554623  1.0000
  C   C1        1.0  0.5853144498690134  0.5488349898781897  0.610638989141547  1.0000
  C   C2        1.0  0.4146855498604096  0.04883499128883506  0.3893610108761104  1.0000
  C   C3        1.0  0.8445125758175422  0.160355286577968  0.6891620936989509  1.0000
  C   C4        1.0  0.15548742391188078  0.6603552874100562  0.3108379063187066  1.0000
  C   C5        1.0  0.7642111528361266  0.2491551817550521  0.6452490349397864  1.0000
  C   C6        1.0  0.2357888468932964  0.7491551825871403  0.3547509650778712  1.0000
  C   C7        1.0  0.33307260888513535  0.039171339538195786  0.5614601176534696  1.0000
  C   C8        1.0  0.6669273917098143  0.539171340370284  0.43853988235925123  1.0000
  C   C9        1.0  0.4807676201165423  0.3452440730713033  0.6124131856417362  1.0000
  C   C10       1.0  0.5192323796128808  0.8452440739033915  0.3875868143759213  1.0000
  C   C11       1.0  0.7492028690945244  0.6411785565531344  0.8173294099684474  1.0000
  C   C12       1.0  0.2507971306348987  0.1411785557210461  0.1826705900492101  1.0000
  C   C13       1.0  0.8389786189423272  0.2843083681168942  0.7453179579253632  1.0000
  C   C14       1.0  0.16102138078709602  0.7843083689489824  0.25468204209229434  1.0000
  C   C15       1.0  0.8688342140784733  0.762910096142045  0.9033426680210199  1.0000
  C   C16       1.0  0.13116578651647637  0.2629100953099568  0.09665733199170096  1.0000
  C   C17       1.0  0.4318804182284974  0.22000338438190148  0.5607951406676921  1.0000
  C   C18       1.0  0.5681195815009256  0.7200033852139897  0.43920485934996534  1.0000
  C   C19       1.0  0.2811833660995168  0.9826227460043223  0.6152172608694761  1.0000
  C   C20       1.0  0.7188166336299062  0.482622745172234  0.3847827391481813  1.0000
  C   C21       1.0  0.7761732377166274  0.6594546796309091  0.9471943481072103  1.0000
  C   C22       1.0  0.22382676287832215  0.15945468104155447  0.05280565190551068  1.0000
  C   C23       1.0  0.7564308504596412  0.5032752530090397  0.7570997291102965  1.0000
  C   C24       1.0  0.24356914926978193  0.0032752521769515517  0.2429002709073609  1.0000
  C   C25       1.0  0.6784644361921621  0.5924950103320027  0.711971969236832  1.0000
  C   C26       1.0  0.3215355644027874  0.09249500949991449  0.28802803077588895  1.0000
  C   C27       1.0  0.6784077570664363  0.46378157435018497  0.6557084068690436  1.0000
  C   C28       1.0  0.32159224266298664  0.9637815729395397  0.3442915931486138  1.0000
  C   C29       1.0  0.6584920586011132  0.4874731005120548  0.8550856708003631  1.0000
  C   C30       1.0  0.34150794112830984  0.987473101344143  0.14491432921729439  1.0000
  C   C31       1.0  0.42857818401658965  0.2816476675416283  0.6660139364345891  1.0000
  C   C32       1.0  0.5714218157128333  0.7816476683737165  0.3339860635830684  1.0000
  C   C33       1.0  0.13253445529772473  0.6796627696323151  0.568841146788689  1.0000
  C   C34       1.0  0.8674655444316983  0.17966276880022683  0.43115885322896846  1.0000
  C   C35       1.0  0.028383252002057366  0.5009713601261974  0.5864267750954674  1.0000
  C   C36       1.0  0.9716167477273657  0.0009713592941090797  0.41357322492219006  1.0000
  C   C37       1.0  0.6524692811538454  0.6376616475945974  0.9160838850962099  1.0000
  C   C38       1.0  0.3475307185755776  0.13766164900524278  0.08391611492144761  1.0000
  C   C39       1.0  0.33044904484843307  0.10338409534185487  0.6675230256949197  1.0000
  C   C40       1.0  0.6695509548809899  0.6033840961739431  0.3324769743227377  1.0000
  C   C41       1.0  0.9911052945879893  0.7043513859701895  0.9290181612622295  1.0000
  C   C42       1.0  0.008894706006960247  0.20435138513810133  0.07098183875049142  1.0000
  C   C43       1.0  0.20339108911180082  0.43476280247418003  0.8064456643876096  1.0000
  C   C44       1.0  0.7966089106176222  0.9347628010635347  0.19355433563004795  1.0000
  C   C45       1.0  0.12983014929270265  0.5708079519408866  0.7566663956064457  1.0000
  C   C46       1.0  0.8701698504367205  0.07080795335153192  0.2433336044112119  1.0000
  O   O1        1.0  0.8600666777995108  0.6127990915716212  0.8472783608631611  1.0000
  O   O2        1.0  0.13993332192991217  0.11279909073953288  0.15272163915449635  1.0000
  O   O3        1.0  0.18334071687301667  0.8156843165712547  0.6211573910487825  1.0000
  O   O4        1.0  0.8166592828564063  0.3156843179819001  0.37884260896887495  1.0000
  O   O5        1.0  0.578711554522849  0.4699648804271773  0.9516467597068049  1.0000
  O   O6        1.0  0.42128844607210064  0.9699648790165321  0.04835324030591603  1.0000
  O   O7        1.0  0.7753911138660264  0.8453821993766054  0.9939007203352156  1.0000
  O   O8        1.0  0.22460888672892307  0.34538219854451724  0.0060992796775053894  1.0000
  O   O9        1.0  0.5480652680500583  0.4960320871297467  0.8253308961042622  1.0000
  O   O10       1.0  0.45193473167936477  0.9960320857191014  0.17466910391339513  1.0000
  O   O11       1.0  0.014569957905676518  0.3935375899880949  0.9330892600935387  1.0000
  O   O12       1.0  0.9854300418237465  0.8935375885774496  0.06691073992411872  1.0000
  O   O13       1.0  0.37072947392171296  0.6940882807000507  0.9466184675985274  1.0000
  O   O14       1.0  0.62927052580771  0.194088282110696  0.053381532419130136  1.0000
  O   O15       1.0  0.426102783232641  0.008446008915653442  0.8416869381405631  1.0000
  O   O16       1.0  0.573897216496782  0.5084460097477417  0.15831306187709437  1.0000
  O   O17       1.0  0.13884947889454125  0.2345446563839979  0.8420203104099199  1.0000
  O   O18       1.0  0.8611505208348819  0.7345446572160861  0.15797968960773756  1.0000
  O   O19       1.0  0.04710583450506688  0.7867546866252335  0.7766111302728284  1.0000
  O   O20       1.0  0.9528941651827665  0.2867546857931454  0.22338886930383883  1.0000
  Cl  Cl1       1.0  0.7716096048680875  0.08400703231154147  0.5759047810714514  1.0000
  Cl  Cl2       1.0  0.22839039572686193  0.5840070309008961  0.4240952189412694  1.0000
