data_image0
_chemical_formula_structural       H108C116N16O12S4Cl4
_chemical_formula_sum              "H108 C116 N16 O12 S4 Cl4"
_cell_length_a       11.775668341047991
_cell_length_b       12.891870977056726
_cell_length_c       17.209571305549556
_cell_angle_alpha    90.0
_cell_angle_beta     92.07203984316547
_cell_angle_gamma    90.0

_space_group_name_H-M_alt    "P 1"
_space_group_IT_number       1

loop_
  _space_group_symop_operation_xyz
  'x, y, z'

loop_
  _atom_site_type_symbol
  _atom_site_label
  _atom_site_symmetry_multiplicity
  _atom_site_fract_x
  _atom_site_fract_y
  _atom_site_fract_z
  _atom_site_occupancy
  H   H1        1.0  0.5238734230888514  0.2533197699396763  0.7400413098139418  1.0000
  H   H2        1.0  0.4761265771307166  0.7533197700538287  0.7599586900185674  1.0000
  H   H3        1.0  0.4761265772827795  0.7466802302886284  0.2599586901767174  1.0000
  H   H4        1.0  0.5238734223916361  0.246680230174476  0.24004130997073078  1.0000
  H   H5        1.0  0.3858334322724523  0.29026119379099763  0.7178778444254114  1.0000
  H   H6        1.0  0.6141665679471157  0.7902611939051499  0.7821221554070978  1.0000
  H   H7        1.0  0.6141665680991787  0.7097388064373071  0.28212215556524783  1.0000
  H   H8        1.0  0.385833431575237  0.20973880632315473  0.21787784458220044  1.0000
  H   H9        1.0  0.222036613387698  0.3693951512914715  0.9563401680913233  1.0000
  H   H10       1.0  0.7779633868606064  0.8693951514056238  0.5436598323226367  1.0000
  H   H11       1.0  0.7779633869839329  0.6306048481611505  0.04365983189933614  1.0000
  H   H12       1.0  0.22203661351102466  0.1306048488226808  0.4563401676680225  1.0000
  H   H13       1.0  0.5855883935539876  0.004168345315868851  0.9976247824653125  1.0000
  H   H14       1.0  0.41441160666558047  0.5041683454300212  0.5023752173671968  1.0000
  H   H15       1.0  0.4144116068176435  0.9958316549124359  0.0023752175253467663  1.0000
  H   H16       1.0  0.5855883937060505  0.4958316547982835  0.4976247826234626  1.0000
  H   H17       1.0  0.8058999668611697  0.16029687651061164  0.16554830074758453  1.0000
  H   H18       1.0  0.1941000336625242  0.660296876624764  0.3344516994012247  1.0000
  H   H19       1.0  0.19410003351046126  0.8397031229420103  0.8344516992430748  1.0000
  H   H20       1.0  0.8058999667091067  0.3397031228278581  0.6655483005894346  1.0000
  H   H21       1.0  0.2094010395559436  0.2927890006592168  0.08657367641781265  1.0000
  H   H22       1.0  0.7905989601184721  0.7927890007733691  0.4134263237296356  1.0000
  H   H23       1.0  0.790598959966409  0.7072109995690877  0.9134263235714856  1.0000
  H   H24       1.0  0.2094010402531589  0.2072109994549355  0.5865736762610236  1.0000
  H   H25       1.0  0.7321095254324212  0.8736770450189124  0.9779081082660781  1.0000
  H   H26       1.0  0.2678904747871468  0.3736770449047601  0.522091891566431  1.0000
  H   H27       1.0  0.2678904749392097  0.1263229552093922  0.022091891724581043  1.0000
  H   H28       1.0  0.7321095255844843  0.6263229553235445  0.47790810842422826  1.0000
  H   H29       1.0  0.5373649314472743  0.4405016525612574  0.08089536047737873  1.0000
  H   H30       1.0  0.4626350681984051  0.9405016526754097  0.4191046390886189  1.0000
  H   H31       1.0  0.4626350689243567  0.5594983476670473  0.9191046395132805  1.0000
  H   H32       1.0  0.5373649313239476  0.05949834755289491  0.5808953609006793  1.0000
  H   H33       1.0  0.7014063636189362  0.35604192581268984  0.8566587043839825  1.0000
  H   H34       1.0  0.2985936366293681  0.8560419259268421  0.6433412960299774  1.0000
  H   H35       1.0  0.29859363675269485  0.6439580744156148  0.14334129560667677  1.0000
  H   H36       1.0  0.7014063637422627  0.14395807430146249  0.35665870396068194  1.0000
  H   H37       1.0  0.9553651672034066  0.028892979200839008  0.14517807077890119  1.0000
  H   H38       1.0  0.04463483332028722  0.5288929785393087  0.3548219293699081  1.0000
  H   H39       1.0  0.04463483316822424  0.9711070210274656  0.8548219292117581  1.0000
  H   H40       1.0  0.9553651670513438  0.4711070209133133  0.6451780706207512  1.0000
  H   H41       1.0  0.5320974869225085  0.05946170508254746  0.8658662476684361  1.0000
  H   H42       1.0  0.4679025132970595  0.5594617044210172  0.6341337521640732  1.0000
  H   H43       1.0  0.4679025134491225  0.9405382951457572  0.1341337523222232  1.0000
  H   H44       1.0  0.5320974862252932  0.4405382950316049  0.36586624782522503  1.0000
  H   H45       1.0  0.32385015028372494  0.49020781632448635  0.2753679908000746  1.0000
  H   H46       1.0  0.676149850239969  0.9902078164386386  0.22463200934873465  1.0000
  H   H47       1.0  0.676149850087906  0.5097921839038183  0.7246320091905846  1.0000
  H   H48       1.0  0.3238501501316619  0.009792183789665964  0.7753679906419246  1.0000
  H   H49       1.0  0.5051356335824893  0.5203107657482481  0.20911390884396128  1.0000
  H   H50       1.0  0.4948643660919264  0.020310765634095736  0.29088609130348697  1.0000
  H   H51       1.0  0.4948643659685997  0.47968923370437394  0.7908860917267876  1.0000
  H   H52       1.0  0.5051356342797045  0.9796892338185264  0.7091139086871722  1.0000
  H   H53       1.0  0.7061841574958557  0.9733667504377154  0.8197979663801994  1.0000
  H   H54       1.0  0.2938158427237122  0.473366750323563  0.6802020334523099  1.0000
  H   H55       1.0  0.29381584287577517  0.026633249790589276  0.1802020336104599  1.0000
  H   H56       1.0  0.7061841576479188  0.526633249129059  0.3197979665383494  1.0000
  H   H57       1.0  0.1760441306634242  0.37562137091024134  0.2136763169978136  1.0000
  H   H58       1.0  0.8239558690109914  0.8756213710243937  0.28632368314963463  1.0000
  H   H59       1.0  0.8239558697082068  0.6243786285423808  0.7863236829928458  1.0000
  H   H60       1.0  0.17604413051136122  0.12437862920391098  0.7136763168396636  1.0000
  H   H61       1.0  0.030540029783436493  0.8935393877661916  0.05463964892258198  1.0000
  H   H62       1.0  0.9694599698909792  0.39353938765203916  0.4453603512248662  1.0000
  H   H63       1.0  0.9694599697389162  0.10646061246211314  0.9453603510667162  1.0000
  H   H64       1.0  0.030540029631373523  0.6064606125762655  0.5546396487644321  1.0000
  H   H65       1.0  0.9366821340114083  0.8305966177490145  0.9866757824346989  1.0000
  H   H66       1.0  0.063317866236896  0.33059661763486226  0.5133242179792609  1.0000
  H   H67       1.0  0.0633178655109444  0.1694033817036075  0.013324217554599225  1.0000
  H   H68       1.0  0.936682134134735  0.6694033818177598  0.4866757820113985  1.0000
  H   H69       1.0  0.9378733112479398  0.7957600683607012  0.08643347626424042  1.0000
  H   H70       1.0  0.0621266892470178  0.2957600682465489  0.4135665233031182  1.0000
  H   H71       1.0  0.062126689123691105  0.20423993109192085  0.9135665237264189  1.0000
  H   H72       1.0  0.937873311124613  0.7042399312060732  0.586433476687541  1.0000
  H   H73       1.0  0.876019543272245  0.07705163213065169  0.7896342253191214  1.0000
  H   H74       1.0  0.12398045609804484  0.577051632244804  0.7103657745120269  1.0000
  H   H75       1.0  0.1239804562501078  0.922948368097653  0.21036577467017684  1.0000
  H   H76       1.0  0.8760195434243078  0.42294836798350066  0.28963422547727147  1.0000
  H   H77       1.0  0.9512329491506752  0.48576183869237965  0.16750832657798553  1.0000
  H   H78       1.0  0.04876705049500413  0.985761838806532  0.3324916729880122  1.0000
  H   H79       1.0  0.04876705122095572  0.5142381615359249  0.8324916734126738  1.0000
  H   H80       1.0  0.9512329490273485  0.014238161421772684  0.6675083270012862  1.0000
  H   H81       1.0  0.04940709828724521  0.47814018391667906  0.09081695992473297  1.0000
  H   H82       1.0  0.9505929013871705  0.9781401840308314  0.4091830402227153  1.0000
  H   H83       1.0  0.9505929012351074  0.5218598163116256  0.9091830400645652  1.0000
  H   H84       1.0  0.04940709813518223  0.021859816197473257  0.590816959766583  1.0000
  H   H85       1.0  0.7822050062312359  0.45489721239351766  0.9625187278598845  1.0000
  H   H86       1.0  0.2177949939883321  0.95489721250767  0.5374812719726249  1.0000
  H   H87       1.0  0.21779499329111676  0.5451027878347869  0.037481272129413774  1.0000
  H   H88       1.0  0.7822050063832988  0.04510278772063463  0.4625187280180345  1.0000
  H   H89       1.0  0.7331054272015672  0.41740979564384  0.055822513282656715  1.0000
  H   H90       1.0  0.2668945733221266  0.9174097957579923  0.44417748686615255  1.0000
  H   H91       1.0  0.26689457317006365  0.582590203808782  0.9441774867080024  1.0000
  H   H92       1.0  0.7331054270495044  0.0825902036946297  0.5558225131245066  1.0000
  H   H93       1.0  0.9407766451601985  0.332770589128207  0.9745878012662654  1.0000
  H   H94       1.0  0.059223354210091284  0.8327705892423594  0.5254121985648827  1.0000
  H   H95       1.0  0.05922335436215427  0.6672294111000977  0.02541219872303286  1.0000
  H   H96       1.0  0.9407766453122614  0.16722941098594535  0.4745878014244154  1.0000
  H   H97       1.0  0.8291493524787765  0.25908026894964664  0.01544694992704264  1.0000
  H   H98       1.0  0.1708506480449174  0.759080269063799  0.4845530502217667  1.0000
  H   H99       1.0  0.17085064789285442  0.740919731278658  0.9845530500636165  1.0000
  H   H100      1.0  0.8291493523267136  0.2409197311645057  0.5154469497688926  1.0000
  H   H101      1.0  0.8870929590525877  0.3127948198656764  0.14717268951173246  1.0000
  H   H102      1.0  0.11290704147110635  0.8127948199798286  0.35282731063707684  1.0000
  H   H103      1.0  0.11290704131904339  0.6872051803626282  0.8528273104789268  1.0000
  H   H104      1.0  0.8870929589005245  0.18720518024847593  0.6471726893535824  1.0000
  H   H105      1.0  0.021222596231696908  0.2939616714086297  0.1062598684819369  1.0000
  H   H106      1.0  0.9787774042919969  0.7939616715227822  0.3937401316668724  1.0000
  H   H107      1.0  0.9787774041399341  0.7060383280439924  0.8937401315087223  1.0000
  H   H108      1.0  0.021222596079633935  0.20603832792983995  0.606259868323787  1.0000
  C   C1        1.0  0.42286035615462525  0.2846157680704389  0.834383464878376  1.0000
  C   C2        1.0  0.5771396432156645  0.7846157674089086  0.6656165349527722  1.0000
  C   C3        1.0  0.5771396433677274  0.7153842321578657  0.16561653511092223  1.0000
  C   C4        1.0  0.42286035630668817  0.2153842320437134  0.33438346503652605  1.0000
  C   C5        1.0  0.49334353340068654  0.2757877026792676  0.9703935356552559  1.0000
  C   C6        1.0  0.5066564659696031  0.7757877027934199  0.5296064641758924  1.0000
  C   C7        1.0  0.5066564661216661  0.7242122967733544  0.029606464334042425  1.0000
  C   C8        1.0  0.4933435335527495  0.22421229665920206  0.4703935358134058  1.0000
  C   C9        1.0  0.315825367820285  0.3181068773724476  0.860077809079511  1.0000
  C   C10       1.0  0.6841746324280192  0.8181068774865999  0.6399221913344488  1.0000
  C   C11       1.0  0.6841746325513459  0.681893122855857  0.13992219091114824  1.0000
  C   C12       1.0  0.3158253679436117  0.18189312274170474  0.3600778086562104  1.0000
  C   C13       1.0  0.3026886420202187  0.3361172980796683  0.9394493017779646  1.0000
  C   C14       1.0  0.6973113582280857  0.8361172981938206  0.5605506986359954  1.0000
  C   C15       1.0  0.6973113575308703  0.6638827013729538  0.060550698792784345  1.0000
  C   C16       1.0  0.3026886421435454  0.16388270203448402  0.4394493013546639  1.0000
  C   C17       1.0  0.3901031274199479  0.3211587346296308  0.9946913881063  1.0000
  C   C18       1.0  0.60989687279962  0.8211587347437831  0.5053086117262094  1.0000
  C   C19       1.0  0.6098968721024047  0.6788412655986739  0.00530861188299842  1.0000
  C   C20       1.0  0.3901031275720109  0.17884126548452156  0.4946913882644498  1.0000
  C   C21       1.0  0.6655129988212632  0.009454688944445807  0.030980290447866064  1.0000
  C   C22       1.0  0.3344870008531524  0.5094546890585981  0.4690197096995822  1.0000
  C   C23       1.0  0.33448700155036776  0.9905453112838588  0.9690197095427932  1.0000
  C   C24       1.0  0.6655129986692002  0.4905453111697065  0.5309802902897162  1.0000
  C   C25       1.0  0.6871089497829796  0.09091424139179413  0.08295881950369229  1.0000
  C   C26       1.0  0.3128910507407143  0.5909142415059464  0.417041180645117  1.0000
  C   C27       1.0  0.31289105058865135  0.9090857580608279  0.917041180486967  1.0000
  C   C28       1.0  0.6871089496309166  0.40908575794667557  0.5829588193455423  1.0000
  C   C29       1.0  0.37547121734664723  0.36100043339578347  0.07443198914536987  1.0000
  C   C30       1.0  0.6245287823277683  0.8610004335099357  0.4255680110020784  1.0000
  C   C31       1.0  0.6245287821757054  0.6389995668325212  0.9255680108439284  1.0000
  C   C32       1.0  0.3754712171945843  0.1389995667183689  0.5744319889872199  1.0000
  C   C33       1.0  0.7907218362621259  0.09727190585693386  0.12459710092549675  1.0000
  C   C34       1.0  0.20927816426156795  0.5972719059710863  0.37540289922331255  1.0000
  C   C35       1.0  0.20927816410950495  0.9027280943713708  0.8754028990651626  1.0000
  C   C36       1.0  0.7907218361100631  0.40272809425721845  0.6245971007673468  1.0000
  C   C37       1.0  0.2740097204106477  0.34364850128305047  0.1129758109861708  1.0000
  C   C38       1.0  0.72599028008431  0.8436485013972028  0.3870241885811879  1.0000
  C   C39       1.0  0.7259902799609832  0.6563514989452541  0.8870241890044884  1.0000
  C   C40       1.0  0.274009720287321  0.1563514988311018  0.6129758114094713  1.0000
  C   C41       1.0  0.7492996839558022  0.9355778708509587  0.019843006978715053  1.0000
  C   C42       1.0  0.25070031571861345  0.435577871512489  0.48015699316873317  1.0000
  C   C43       1.0  0.2507003155665505  0.06442212860166337  0.9801569930105832  1.0000
  C   C44       1.0  0.7492996846530176  0.5644221287158157  0.5198430068219261  1.0000
  C   C45       1.0  0.6080958143964051  0.21209130426964937  0.8644946304993123  1.0000
  C   C46       1.0  0.39190418582316283  0.7120913043838017  0.635505369333197  1.0000
  C   C47       1.0  0.39190418597522586  0.7879086959586552  0.13550536949134698  1.0000
  C   C48       1.0  0.6080958145484681  0.28790869584450296  0.3644946306574623  1.0000
  C   C49       1.0  0.45819308977338186  0.4257935950312487  0.10988688241944711  1.0000
  C   C50       1.0  0.5418069099010339  0.925793595145401  0.39011311772800117  1.0000
  C   C51       1.0  0.5418069097489708  0.5742064051970559  0.8901131175698511  1.0000
  C   C52       1.0  0.4581930896213188  0.07420640508290363  0.6098868822612972  1.0000
  C   C53       1.0  0.7027597608380612  0.27230239320945027  0.8487757190478974  1.0000
  C   C54       1.0  0.29724023941024297  0.7723023933236025  0.6512242813660626  1.0000
  C   C55       1.0  0.29724023953356965  0.7276976070188543  0.1512242809427619  1.0000
  C   C56       1.0  0.702759760961388  0.2276976069047021  0.34877571862459683  1.0000
  C   C57       1.0  0.8739989031020242  0.02239641790658991  0.11305751361380359  1.0000
  C   C58       1.0  0.12600109739293344  0.5223964180207422  0.38694248595355507  1.0000
  C   C59       1.0  0.12600109726960676  0.9776035823217147  0.8869424863768557  1.0000
  C   C60       1.0  0.8739989029786974  0.4776035822075624  0.6130575140371042  1.0000
  C   C61       1.0  0.7988276392944703  0.22235711985495357  0.8219238710887947  1.0000
  C   C62       1.0  0.20117236007581926  0.722357119969106  0.6780761287423535  1.0000
  C   C63       1.0  0.2011723602278823  0.777642880373351  0.1780761289005035  1.0000
  C   C64       1.0  0.7988276394465333  0.2776428802591987  0.32192387124694477  1.0000
  C   C65       1.0  0.22899127813032108  0.34037459014361127  0.8038096058227231  1.0000
  C   C66       1.0  0.7710087212399686  0.8403745902577635  0.6961903940084252  1.0000
  C   C67       1.0  0.7710087213920317  0.6596254100846933  0.19619039416657522  1.0000
  C   C68       1.0  0.228991278282384  0.1596254099705411  0.30380960598087303  1.0000
  C   C69       1.0  0.6070787081622775  0.10505862588994172  0.8534846975691205  1.0000
  C   C70       1.0  0.39292129205729054  0.605058626004094  0.6465153022633888  1.0000
  C   C71       1.0  0.39292129220935346  0.894941374338363  0.14651530242153876  1.0000
  C   C72       1.0  0.6070787083143405  0.39494137422421066  0.35348469772727054  1.0000
  C   C73       1.0  0.3380038775905782  0.45451172761719283  0.21916701017831733  1.0000
  C   C74       1.0  0.6619961220551012  0.9545117277313452  0.28083298938768037  1.0000
  C   C75       1.0  0.6619961227810528  0.5454882718354293  0.780832989812342  1.0000
  C   C76       1.0  0.3380038774672516  0.04548827249695951  0.7191670106016179  1.0000
  C   C77       1.0  0.43965043645058766  0.4714147225655452  0.1817227633197488  1.0000
  C   C78       1.0  0.5603495631950917  0.9714147226796974  0.31827723624624893  1.0000
  C   C79       1.0  0.560349563071765  0.5285852768870769  0.8182772366695494  1.0000
  C   C80       1.0  0.4396504363272609  0.02858527677292457  0.6817227637430493  1.0000
  C   C81       1.0  0.8550767388097922  0.9410922131932391  0.060013484497890075  1.0000
  C   C82       1.0  0.14492326171390188  0.44109221307908675  0.4399865156509192  1.0000
  C   C83       1.0  0.1449232615905752  0.05890778703506555  0.9399865160742198  1.0000
  C   C84       1.0  0.8550767386577289  0.5589077871492178  0.5600134843397401  1.0000
  C   C85       1.0  0.7044616449091611  0.05706032439427533  0.8272259844097805  1.0000
  C   C86       1.0  0.2955383553104069  0.5570603245084277  0.6727740154227289  1.0000
  C   C87       1.0  0.2955383546131916  0.9429396758340294  0.17277401557951794  1.0000
  C   C88       1.0  0.7044616450612241  0.442939675719877  0.32722598456793034  1.0000
  C   C89       1.0  0.25503359676099663  0.39056783603876466  0.1844210050234924  1.0000
  C   C90       1.0  0.744966402913419  0.8905678353772345  0.3155789951239558  1.0000
  C   C91       1.0  0.7449664027613561  0.60943216418954  0.8155789949658059  1.0000
  C   C92       1.0  0.2550335966089337  0.10943216407538768  0.6844210048653424  1.0000
  C   C93       1.0  0.9446807592324559  0.8614699347957283  0.046035090749193694  1.0000
  C   C94       1.0  0.055319241291238046  0.36146993468157596  0.4539649093996156  1.0000
  C   C95       1.0  0.05531924113917507  0.13853006543257634  0.9539649092414657  1.0000
  C   C96       1.0  0.9446807590803928  0.6385300655467288  0.5460350905910438  1.0000
  C   C97       1.0  0.8006536469949443  0.11503325875966643  0.8109636055538308  1.0000
  C   C98       1.0  0.19934635322462363  0.6150332588738188  0.6890363942786785  1.0000
  C   C99       1.0  0.1993463533766866  0.8849667414686382  0.1890363944368284  1.0000
  C   C100      1.0  0.8006536471470073  0.3849667413544859  0.3109636057119809  1.0000
  C   C101      1.0  0.9639128764702702  0.45620295847412606  0.10839835332490075  1.0000
  C   C102      1.0  0.03608712317540915  0.9562029585882783  0.39160164624109695  1.0000
  C   C103      1.0  0.03608712390136075  0.5437970417541786  0.8916016466657586  1.0000
  C   C104      1.0  0.9639128763469434  0.043797041640026305  0.6083983537482014  1.0000
  C   C105      1.0  0.8092040836989178  0.4277210165858253  0.02087656371628194  1.0000
  C   C106      1.0  0.19079591597549767  0.9277210166999776  0.47912343643116634  1.0000
  C   C107      1.0  0.19079591582343472  0.5722789836424793  0.9791234362730165  1.0000
  C   C108      1.0  0.8092040843961332  0.072278983528327  0.520876563559493  1.0000
  C   C109      1.0  0.8805041478110011  0.32968605546581076  0.021749127359276407  1.0000
  C   C110      1.0  0.11949585186341467  0.8296860555799632  0.47825087278817185  1.0000
  C   C111      1.0  0.11949585174008796  0.6703139447624938  0.9782508732114725  1.0000
  C   C112      1.0  0.8805041476589379  0.17031394464834157  0.5217491272011263  1.0000
  C   C113      1.0  0.9425109697668375  0.3393149627222454  0.10124355088340387  1.0000
  C   C114      1.0  0.05748903075685635  0.8393149628363976  0.39875644926540543  1.0000
  C   C115      1.0  0.057489030604793386  0.6606850375060593  0.8987564491072555  1.0000
  C   C116      1.0  0.9425109696147745  0.16068503739190693  0.6012435507252538  1.0000
  N   N1        1.0  0.5054875542787142  0.26174610000405  0.8899302174379953  1.0000
  N   N2        1.0  0.4945124459408539  0.7617461001182023  0.6100697823945139  1.0000
  N   N3        1.0  0.49451244524363863  0.738253899448572  0.11006978255130291  1.0000
  N   N4        1.0  0.505487554430777  0.2382538993344197  0.3899302175961453  1.0000
  N   N5        1.0  0.5831544648118946  0.24368426317567984  0.012476162324279715  1.0000
  N   N6        1.0  0.41684553483378467  0.7436842625141497  0.48752383724171805  1.0000
  N   N7        1.0  0.41684553471045793  0.7563157370526249  0.9875238376650186  1.0000
  N   N8        1.0  0.583154464688568  0.2563157369384725  0.5124761627475803  1.0000
  N   N9        1.0  0.44622646154683027  0.2748438482130187  0.7598501797631024  1.0000
  N   N10       1.0  0.553773538701474  0.774843848327171  0.7401498206508574  1.0000
  N   N11       1.0  0.5537735388248007  0.7251561512396033  0.24014982022755682  1.0000
  N   N12       1.0  0.446226461670157  0.2251561519011336  0.25985017933980187  1.0000
  N   N13       1.0  0.1606441465938107  0.3587261746747507  0.7545615880143186  1.0000
  N   N14       1.0  0.8393558536257573  0.858726174788903  0.7454384118181907  1.0000
  N   N15       1.0  0.8393558537778203  0.6412738255535539  0.2454384119763407  1.0000
  N   N16       1.0  0.16064414674587366  0.14127382543940165  0.2545615881724686  1.0000
  O   O1        1.0  0.4743815611923723  0.13570530477023265  0.10797103112295739  1.0000
  O   O2        1.0  0.5256184393313216  0.6357053048843849  0.3920289690258519  1.0000
  O   O3        1.0  0.5256184391792587  0.8642946946823894  0.892028968867702  1.0000
  O   O4        1.0  0.4743815610403094  0.3642946953439196  0.6079710309648074  1.0000
  O   O5        1.0  0.6262187560559758  0.25539483181763095  0.15758315960232813  1.0000
  O   O6        1.0  0.3737812436184398  0.7553948311561006  0.3424168405451201  1.0000
  O   O7        1.0  0.37378124346637687  0.7446051684106737  0.8424168403869702  1.0000
  O   O8        1.0  0.6262187559039127  0.24460516829652137  0.6575831594441781  1.0000
  O   O9        1.0  0.8828683984546098  0.5060298634395257  0.05515314788207526  1.0000
  O   O10       1.0  0.11713160121980584  0.006029863325373392  0.444846852265373  1.0000
  O   O11       1.0  0.11713160191702116  0.49397013678877894  0.9448468521085841  1.0000
  O   O12       1.0  0.8828683983025468  0.9939701369029312  0.5551531477239253  1.0000
  S   S1        1.0  0.582420320642175  0.188072380208815  0.09501328447989713  1.0000
  S   S2        1.0  0.4175796790322407  0.6880723803229674  0.4049867156675512  1.0000
  S   S3        1.0  0.41757967888017766  0.8119276192438071  0.9049867155094012  1.0000
  S   S4        1.0  0.5824203204901119  0.31192761912965467  0.5950132843217472  1.0000
  Cl  Cl1       1.0  0.9175796742080267  0.29501727691571394  0.8011702910365394  1.0000
  Cl  Cl2       1.0  0.08242032604027764  0.7950172770298664  0.6988297093774206  1.0000
  Cl  Cl3       1.0  0.08242032616360434  0.7049827233125907  0.19882970895411994  1.0000
  Cl  Cl4       1.0  0.9175796734820751  0.20498272319843835  0.3011702906118777  1.0000
