data_image0
_chemical_formula_structural       H20C22N4O8
_chemical_formula_sum              "H20 C22 N4 O8"
_cell_length_a       6.653478740012938
_cell_length_b       7.154731903106501
_cell_length_c       10.529854565112856
_cell_angle_alpha    85.14981606851498
_cell_angle_beta     86.41256469996762
_cell_angle_gamma    83.63521217214904

_space_group_name_H-M_alt    "P 1"
_space_group_IT_number       1

loop_
  _space_group_symop_operation_xyz
  'x, y, z'

loop_
  _atom_site_type_symbol
  _atom_site_label
  _atom_site_symmetry_multiplicity
  _atom_site_fract_x
  _atom_site_fract_y
  _atom_site_fract_z
  _atom_site_occupancy
  H   H1        1.0  0.6469978934886534  0.28682268444116055  0.007402318420743567  1.0000
  H   H2        1.0  0.3530017152270381  0.7131764979248233  0.9925982527665679  1.0000
  H   H3        1.0  0.9841103681092395  0.13308996163115852  0.08860649987933515  1.0000
  H   H4        1.0  0.015889179342990115  0.8669084359367155  0.9113931876779706  1.0000
  H   H5        1.0  0.7919633707275985  0.25819663976777163  0.45730358864950477  1.0000
  H   H6        1.0  0.2080380056883467  0.7418027955379106  0.5426963585270497  1.0000
  H   H7        1.0  0.45757677878833775  0.41170121759104367  0.3789511142621759  1.0000
  H   H8        1.0  0.5424241317329314  0.5882987890779456  0.6210491393676468  1.0000
  H   H9        1.0  0.12423321092701764  0.08173317983649572  0.3105675591955097  1.0000
  H   H10       1.0  0.8757700042849788  0.918265207831023  0.6894334336018513  1.0000
  H   H11       1.0  0.6445623702153014  0.7991105903878214  0.061745862852298265  1.0000
  H   H12       1.0  0.3554362060632339  0.20088566260517857  0.9382539083740757  1.0000
  H   H13       1.0  0.9878786983199548  0.6381423458763624  0.10210252232283686  1.0000
  H   H14       1.0  0.012119968156810827  0.3618530311821263  0.8978972003323752  1.0000
  H   H15       1.0  0.2199946530721292  0.5299660555181303  0.25449142715113815  1.0000
  H   H16       1.0  0.7800034414769352  0.4700293981539679  0.7455083360276973  1.0000
  H   H17       1.0  0.8802093320996407  0.7106536268027274  0.5034659670727214  1.0000
  H   H18       1.0  0.11978929922131762  0.2893406627715952  0.4965338036741887  1.0000
  H   H19       1.0  0.5399538823818112  0.8731239747897762  0.46234743403908085  1.0000
  H   H20       1.0  0.46004434295604396  0.12687150253612456  0.5376525706072198  1.0000
  C   C1        1.0  0.6846703935638722  0.2805697699549272  0.10662762838278914  1.0000
  C   C2        1.0  0.3153300259858076  0.7194291356702534  0.8933724932360148  1.0000
  C   C3        1.0  0.8663129120726896  0.19771238162128987  0.15258702078532116  1.0000
  C   C4        1.0  0.13368764678376607  0.8022864363961193  0.8474131469752972  1.0000
  C   C5        1.0  0.7620885698037226  0.2653933211356108  0.3562953711692933  1.0000
  C   C6        1.0  0.23791245246519901  0.7346070862004465  0.6437046691893378  1.0000
  C   C7        1.0  0.5775497239596856  0.3498537190738706  0.315985459351171  1.0000
  C   C8        1.0  0.42245160101442186  0.650146883903321  0.6840147595051203  1.0000
  C   C9        1.0  0.5668559683774631  0.8437646697194711  0.2595964877576907  1.0000
  C   C10       1.0  0.4331443872380155  0.15623364123963027  0.7404030709458882  1.0000
  C   C11       1.0  0.36292021380045203  0.9388825497037929  0.23349946333256522  1.0000
  C   C12       1.0  0.6370803848646959  0.06111648091848645  0.7665010915488368  1.0000
  C   C13       1.0  0.6956948215929283  0.7772235610923648  0.15860962071914075  1.0000
  C   C14       1.0  0.3043047097315665  0.22277402567843577  0.8413898306281156  1.0000
  C   C15       1.0  0.8881549753652197  0.688865172192136  0.18070949727172625  1.0000
  C   C16       1.0  0.11184470073920011  0.3111318530603477  0.8192899871068571  1.0000
  C   C17       1.0  0.9564562994773047  0.665149961745023  0.30549834616912475  1.0000
  C   C18       1.0  0.04354324235947218  0.33484723998521826  0.694501075415953  1.0000
  C   C19       1.0  0.8285756448996013  0.7318133197682117  0.40686825410726524  1.0000
  C   C20       1.0  0.17142405383011755  0.2681845700831107  0.5931312295447911  1.0000
  C   C21       1.0  0.6371150878448821  0.8202795850468969  0.38354692890118464  1.0000
  C   C22       1.0  0.36288501839369386  0.1797180376169038  0.6164528533736036  1.0000
  N   N1        1.0  0.5389595202620989  0.357161836211872  0.18951259216163152  1.0000
  N   N2        1.0  0.46104156970479176  0.642837973034752  0.8104874407039496  1.0000
  N   N3        1.0  0.9075487078612174  0.18954999791578528  0.27616197374583507  1.0000
  N   N4        1.0  0.09245179982968695  0.8104488938170067  0.7238378233169513  1.0000
  O   O1        1.0  0.3673603464218241  0.43422670038095096  0.14731950372993827  1.0000
  O   O2        1.0  0.6326375769669496  0.5657684068765751  0.8526813845700515  1.0000
  O   O3        1.0  0.26569867430316557  0.016282425662357408  0.3347058516573657  1.0000
  O   O4        1.0  0.7343034237501284  0.983716598188713  0.6652945450204856  1.0000
  O   O5        1.0  0.289522410934513  0.9484860854057651  0.12752113822290928  1.0000
  O   O6        1.0  0.710476957058891  0.05151298412536828  0.8724796604683639  1.0000
  O   O7        1.0  0.14155249887635837  0.5800904196235976  0.33272096617496816  1.0000
  O   O8        1.0  0.8584468241966197  0.4199072802787773  0.66727835191997  1.0000
