data_image0
_chemical_formula_structural       H60C48N12O44Cl8
_chemical_formula_sum              "H60 C48 N12 O44 Cl8"
_cell_length_a       8.467018046347869
_cell_length_b       24.60198622317096
_cell_length_c       9.571493996162522
_cell_angle_alpha    90.0
_cell_angle_beta     114.17010596772826
_cell_angle_gamma    90.0

_space_group_name_H-M_alt    "P 1"
_space_group_IT_number       1

loop_
  _space_group_symop_operation_xyz
  'x, y, z'

loop_
  _atom_site_type_symbol
  _atom_site_label
  _atom_site_symmetry_multiplicity
  _atom_site_fract_x
  _atom_site_fract_y
  _atom_site_fract_z
  _atom_site_occupancy
  H   H1        1.0  0.1797257345742001  0.9231308181373653  0.08508877312328553  1.0000
  H   H2        1.0  0.320274264681777  0.4231308182018106  0.9149112265829473  1.0000
  H   H3        1.0  0.820274265416852  0.07686918173374421  0.9149112267355736  1.0000
  H   H4        1.0  0.679725735309275  0.576869181669299  0.08508877327591179  1.0000
  H   H5        1.0  0.07471794771112777  0.9883712822787653  0.167762789163334  1.0000
  H   H6        1.0  0.42528205272992553  0.48837128234321053  0.832237210551665  1.0000
  H   H7        1.0  0.9252820522799242  0.01162871759234429  0.8322372106955251  1.0000
  H   H8        1.0  0.5747179472611266  0.5116287175278991  0.16776278930719418  1.0000
  H   H9        1.0  0.9402899829087495  0.9476531670455927  0.04411602969334678  1.0000
  H   H10       1.0  0.559710016632301  0.4476531671100379  0.9558839703093723  1.0000
  H   H11       1.0  0.0597100170823025  0.052346832825516894  0.9558839701655125  1.0000
  H   H12       1.0  0.4402899838797404  0.5523468331675428  0.04411603069461386  1.0000
  H   H13       1.0  0.7500913003514458  0.014880690391379868  0.36337866029949634  1.0000
  H   H14       1.0  0.7499087003746812  0.5148806903269346  0.6366213397119891  1.0000
  H   H15       1.0  0.24990869963960624  0.9851193094797298  0.6366213395593627  1.0000
  H   H16       1.0  0.25009129961637083  0.48511930954417487  0.36337866014687004  1.0000
  H   H17       1.0  0.9297235792536971  0.9756902354246635  0.36679631099035426  1.0000
  H   H18       1.0  0.5702764202873537  0.47569023548910855  0.633203689012365  1.0000
  H   H19       1.0  0.07027642073735485  0.024309764446446173  0.6332036888685049  1.0000
  H   H20       1.0  0.4297235797036984  0.5243097643820009  0.36679631084649406  1.0000
  H   H21       1.0  0.8499942987892295  0.09093578175785377  0.23479164600267008  1.0000
  H   H22       1.0  0.6500057007518212  0.5909357816934085  0.7652083540000493  1.0000
  H   H23       1.0  0.15000570120182255  0.9090642181132558  0.7652083538561891  1.0000
  H   H24       1.0  0.34999429923923076  0.409064218177701  0.23479164585880985  1.0000
  H   H25       1.0  0.9883363815046075  0.07710988587633992  0.4294756654107918  1.0000
  H   H26       1.0  0.5116636192215195  0.5771098858118947  0.5705243346006936  1.0000
  H   H27       1.0  0.011663618486444644  0.9228901139947696  0.5705243344480674  1.0000
  H   H28       1.0  0.48833638076953245  0.4228901140592149  0.4294756652581655  1.0000
  H   H29       1.0  0.1076415204404631  0.1302054952369258  0.22550921974158258  1.0000
  H   H30       1.0  0.39235847881551394  0.6302054951724806  0.7744907799646502  1.0000
  H   H31       1.0  0.8923584795505889  0.8697945046341838  0.7744907801172766  1.0000
  H   H32       1.0  0.607641521175538  0.369794504698629  0.22550921989420888  1.0000
  H   H33       1.0  0.2401284787832764  0.10712745125910826  0.4139857415530449  1.0000
  H   H34       1.0  0.2598715221787664  0.6071274516011343  0.5860142593070813  1.0000
  H   H35       1.0  0.7598715217287653  0.8928725486120014  0.5860142594509415  1.0000
  H   H36       1.0  0.7401284778122855  0.39287254867644655  0.41398574055177784  1.0000
  H   H37       1.0  0.4258923014615122  0.11703374531964479  0.28584407034853737  1.0000
  H   H38       1.0  0.07410769897954116  0.6170337452551996  0.7141559293664617  1.0000
  H   H39       1.0  0.5741076985295398  0.8829662545514648  0.7141559295103217  1.0000
  H   H40       1.0  0.9258923010115108  0.38296625461591  0.2858440704923975  1.0000
  H   H41       1.0  0.39791121595856105  0.04547384466650613  0.29915077373322774  1.0000
  H   H42       1.0  0.10208878448249217  0.5454738446020609  0.7008492259817711  1.0000
  H   H43       1.0  0.6020887840324909  0.9545261556110747  0.7008492261256313  1.0000
  H   H44       1.0  0.8979112155085598  0.45452615526904866  0.299150773877088  1.0000
  H   H45       1.0  0.47913315188423167  0.1116297048168181  0.05300997606511952  1.0000
  H   H46       1.0  0.02086684855682158  0.6116297047523729  0.9469900236498794  1.0000
  H   H47       1.0  0.5208668481068203  0.8883702954607626  0.9469900237937395  1.0000
  H   H48       1.0  0.9791331514342304  0.38837029552520796  0.053009976208979695  1.0000
  H   H49       1.0  0.49487146147719535  0.04115969705918664  0.10053286310887545  1.0000
  H   H50       1.0  0.005128538963858023  0.5411596974012126  0.8994671366061235  1.0000
  H   H51       1.0  0.5051285385138566  0.9588403028119229  0.8994671367499836  1.0000
  H   H52       1.0  0.9948714610271939  0.4588403028763681  0.10053286325273562  1.0000
  H   H53       1.0  0.23111787932193978  0.08855977685037418  0.7985539441385178  1.0000
  H   H54       1.0  0.26888212111911347  0.588559776785929  0.20144605557648115  1.0000
  H   H55       1.0  0.7688821206691122  0.9114402230207354  0.2014460557203413  1.0000
  H   H56       1.0  0.7311178788719386  0.4114402230851806  0.7985539442823779  1.0000
  H   H57       1.0  0.4349124600473286  0.05940377686349395  0.824939759608679  1.0000
  H   H58       1.0  0.06508754039372473  0.5594037767990487  0.17506024010631993  1.0000
  H   H59       1.0  0.5650875399437235  0.9405962230076157  0.1750602402501801  1.0000
  H   H60       1.0  0.9349124595973273  0.4405962230720608  0.8249397597525392  1.0000
  C   C1        1.0  0.8385822978534154  0.008573852862389444  0.306186052137864  1.0000
  C   C2        1.0  0.6614177028727114  0.5085738527979442  0.6938139478736215  1.0000
  C   C3        1.0  0.1614177021376365  0.9914261470087201  0.6938139477209951  1.0000
  C   C4        1.0  0.3385822971183406  0.49142614707316534  0.30618605198523774  1.0000
  C   C5        1.0  0.9362788580925709  0.06021192909232799  0.31271324651565074  1.0000
  C   C6        1.0  0.5637211414484797  0.5602119290278827  0.6872867534870686  1.0000
  C   C7        1.0  0.06372114189848102  0.9397880711852529  0.6872867533432083  1.0000
  C   C8        1.0  0.4362788585425722  0.4397880708432268  0.31271324637179054  1.0000
  C   C9        1.0  0.18538378869297517  0.09565201153489189  0.2919413919956186  1.0000
  C   C10       1.0  0.31461621226906766  0.5956520114704467  0.7080586088645077  1.0000
  C   C11       1.0  0.8146162118190664  0.9043479883362177  0.7080586090083678  1.0000
  C   C12       1.0  0.6853837877219844  0.4043479884006629  0.2919413909943515  1.0000
  C   C13       1.0  0.33110411418546454  0.08352153811324085  0.2456741144533242  1.0000
  C   C14       1.0  0.16889588625558877  0.5835215380487957  0.7543258852616748  1.0000
  C   C15       1.0  0.6688958858055875  0.9164784617578686  0.754325885405535  1.0000
  C   C16       1.0  0.8311041137354632  0.4164784618223139  0.24567411459718433  1.0000
  C   C17       1.0  0.40552871614162306  0.07330492357976587  0.0335824743275729  1.0000
  C   C18       1.0  0.09447128363534353  0.5733049235153207  0.9664175265237871  1.0000
  C   C19       1.0  0.5944712831853424  0.9266950762913437  0.9664175266676474  1.0000
  C   C20       1.0  0.9055287163557084  0.4266950763557889  0.03358247333507193  1.0000
  C   C21       1.0  0.3309604119387251  0.05888255024855004  0.8664377903244476  1.0000
  C   C22       1.0  0.16903958850232814  0.5588825501841048  0.13356220939055144  1.0000
  C   C23       1.0  0.6690395880523268  0.9411174500290307  0.13356220953441159  1.0000
  C   C24       1.0  0.8309604114887238  0.441117450093476  0.8664377904683077  1.0000
  C   C25       1.0  0.2776061930894411  0.8479794769721276  0.13635739903497268  1.0000
  C   C26       1.0  0.2223938078726017  0.3479794770365728  0.8636426018251535  1.0000
  C   C27       1.0  0.7223938069016109  0.15202052289898196  0.8636426008238864  1.0000
  C   C28       1.0  0.7776061921184503  0.6520205228345368  0.1363573980337056  1.0000
  C   C29       1.0  0.30062474851732457  0.8466319467483777  0.29223749795015547  1.0000
  C   C30       1.0  0.1993752524447183  0.34663194681282294  0.7077625029099709  1.0000
  C   C31       1.0  0.6993752514737274  0.15336805352920305  0.7077625019087037  1.0000
  C   C32       1.0  0.8006247480673233  0.6533680534647578  0.2922374980940156  1.0000
  C   C33       1.0  0.3135738973865128  0.7974099465807863  0.3698842063803418  1.0000
  C   C34       1.0  0.18642610186946434  0.29740994623876044  0.6301157933258911  1.0000
  C   C35       1.0  0.6864261026045393  0.20259005369679434  0.6301157934785174  1.0000
  C   C36       1.0  0.8135738981215876  0.7025900536323492  0.369884206532968  1.0000
  C   C37       1.0  0.3150564023596409  0.748483864796937  0.29466466786180096  1.0000
  C   C38       1.0  0.18494359689633613  0.24848386486138221  0.7053353318444319  1.0000
  C   C39       1.0  0.684943597631411  0.2515161350741726  0.7053353319970581  1.0000
  C   C40       1.0  0.8150564030947158  0.7515161354161987  0.29466466801442726  1.0000
  C   C41       1.0  0.31251706930780937  0.7483089415220046  0.14702936981717313  1.0000
  C   C42       1.0  0.1874829299481677  0.2483089411799785  0.8529706298890597  1.0000
  C   C43       1.0  0.6874829294981665  0.2516910587555763  0.85297063003292  1.0000
  C   C44       1.0  0.8125170700428843  0.7516910586911311  0.14702936996979943  1.0000
  C   C45       1.0  0.2892709282686692  0.797662456680729  0.07043243638114319  1.0000
  C   C46       1.0  0.2107290715082975  0.29766245633870303  0.929567564470217  1.0000
  C   C47       1.0  0.7107290717223829  0.20233754359685172  0.929567563477716  1.0000
  C   C48       1.0  0.7892709278186679  0.7023375435324065  0.07043243652500335  1.0000
  N   N1        1.0  0.3252922602049267  0.8985229098771041  0.3746122360347033  1.0000
  N   N2        1.0  0.1747077402361266  0.3985229099415494  0.6253877636802957  1.0000
  N   N3        1.0  0.6747077397861254  0.10147708999400537  0.625387763824156  1.0000
  N   N4        1.0  0.8252922597549254  0.6014770899295602  0.37461223617856343  1.0000
  N   N5        1.0  0.3186582855762747  0.6966316465074018  0.3711759089106285  1.0000
  N   N6        1.0  0.18134171367970242  0.19663164657184692  0.6288240907956044  1.0000
  N   N7        1.0  0.6813417144147774  0.3033683533637078  0.6288240909482307  1.0000
  N   N8        1.0  0.8186582863113496  0.8033683537057339  0.37117590906325476  1.0000
  N   N9        1.0  0.2718591642109054  0.7983515270609098  0.9107964438381867  1.0000
  N   N10       1.0  0.22814083504507177  0.29835152712535495  0.08920355586804625  1.0000
  N   N11       1.0  0.7281408357801467  0.20164847281019982  0.08920355602067252  1.0000
  N   N12       1.0  0.7718591649459803  0.7016484731522259  0.9107964439908129  1.0000
  O   O1        1.0  0.0764576674683728  0.048893982343063  0.2687464393117141  1.0000
  O   O2        1.0  0.42354233297268046  0.5488939822786177  0.7312535604032848  1.0000
  O   O3        1.0  0.9235423325226791  0.9511060175280465  0.731253560547145  1.0000
  O   O4        1.0  0.5764576670183715  0.4511060175924918  0.2687464394555743  1.0000
  O   O5        1.0  0.2665005775422634  0.07945976850270897  0.08211168385885619  1.0000
  O   O6        1.0  0.23349942171371363  0.5794597684382637  0.9178883158473765  1.0000
  O   O7        1.0  0.7334994224487886  0.9205402317748719  0.917888316000003  1.0000
  O   O8        1.0  0.7665005782773383  0.42054023143284586  0.08211168401148246  1.0000
  O   O9        1.0  0.7451747652159387  0.9938101081843735  0.14958123746015792  1.0000
  O   O10       1.0  0.754825234325112  0.49381010824881877  0.8504187625425613  1.0000
  O   O11       1.0  0.2548252347751132  0.006189891686736019  0.8504187623987012  1.0000
  O   O12       1.0  0.24517476566594007  0.5061898920287621  0.14958123731629777  1.0000
  O   O13       1.0  0.2495570169343881  0.8921817401607717  0.05226336901081721  1.0000
  O   O14       1.0  0.25044298232158907  0.3921817402252169  0.9477366306954157  1.0000
  O   O15       1.0  0.750442983056664  0.10781826011680909  0.9477366308480419  1.0000
  O   O16       1.0  0.7495570176694629  0.6078182600523638  0.05226336916344349  1.0000
  O   O17       1.0  0.24432796496606163  0.9067341859166679  0.4543346863879085  1.0000
  O   O18       1.0  0.25567203547499173  0.4067341859811131  0.5456653133270906  1.0000
  O   O19       1.0  0.7556720350249905  0.09326581395444168  0.5456653134709507  1.0000
  O   O20       1.0  0.7443279645160603  0.5932658138899964  0.4543346865317687  1.0000
  O   O21       1.0  0.4306073511143861  0.9306764962918047  0.3598410938997103  1.0000
  O   O22       1.0  0.06939264932666729  0.43067649635624994  0.6401589058152888  1.0000
  O   O23       1.0  0.5693926488766661  0.06932350357930482  0.6401589059591489  1.0000
  O   O24       1.0  0.9306073506643847  0.5693235035148596  0.35984109404357045  1.0000
  O   O25       1.0  0.19821907114296058  0.6880807608963095  0.41039848300384546  1.0000
  O   O26       1.0  0.30178092981908217  0.18808076055428355  0.5896015178562807  1.0000
  O   O27       1.0  0.8017809288480915  0.31191923938127125  0.5896015168550136  1.0000
  O   O28       1.0  0.6982190706929593  0.811919239316826  0.41039848314770566  1.0000
  O   O29       1.0  0.4382273154458174  0.6647743564947021  0.38888019881500113  1.0000
  O   O30       1.0  0.06177268499523593  0.16477435655914724  0.6111198008999978  1.0000
  O   O31       1.0  0.5617726845452347  0.33522564337640753  0.611119801043858  1.0000
  O   O32       1.0  0.9382273149958161  0.8352256437184336  0.38888019895886133  1.0000
  O   O33       1.0  0.4073671558011152  0.7933967677624433  0.8916394622680824  1.0000
  O   O34       1.0  0.09263284463993805  0.2933967678268885  0.10836053744691655  1.0000
  O   O35       1.0  0.5926328441899368  0.2066032321086663  0.1083605375907767  1.0000
  O   O36       1.0  0.907367155351114  0.706603232044221  0.8916394624119426  1.0000
  O   O37       1.0  0.12562485316291558  0.8043451443510911  0.8088396918958727  1.0000
  O   O38       1.0  0.37437514727813775  0.3043451444155363  0.19116030781912635  1.0000
  O   O39       1.0  0.8743751468281364  0.1956548555200185  0.1911603079629865  1.0000
  O   O40       1.0  0.6256248527129143  0.6956548554555733  0.8088396920397328  1.0000
  O   O41       1.0  0.061497041921120876  0.9518192111637488  0.12022136370431186  1.0000
  O   O42       1.0  0.4385029573348562  0.4518192108217228  0.879778636001921  1.0000
  O   O43       1.0  0.9385029580699311  0.04818078911383199  0.8797786361545473  1.0000
  O   O44       1.0  0.5614970414711197  0.5481807890493867  0.12022136384817202  1.0000
  Cl  Cl1       1.0  0.34697327626005864  0.7954231976428504  0.5583530174793907  1.0000
  Cl  Cl2       1.0  0.1530267247019842  0.2954231977072957  0.4416469833807355  1.0000
  Cl  Cl3       1.0  0.6530267237309935  0.20457680222825908  0.4416469823794685  1.0000
  Cl  Cl4       1.0  0.8469732758100573  0.7045768021638138  0.5583530176232508  1.0000
  Cl  Cl5       1.0  0.3242240746437573  0.6895388960108725  0.05643025457432157  1.0000
  Cl  Cl6       1.0  0.17577592461221977  0.18953889607531776  0.9435697451319113  1.0000
  Cl  Cl7       1.0  0.6757759253472947  0.310461103860237  0.9435697452845377  1.0000
  Cl  Cl8       1.0  0.8242240753788322  0.8104611037957918  0.05643025472694785  1.0000
