data_image0
_chemical_formula_structural       H72C72N24O44
_chemical_formula_sum              "H72 C72 N24 O44"
_cell_length_a       12.351481205564044
_cell_length_b       13.718737987616473
_cell_length_c       12.57680905978532
_cell_angle_alpha    90.0
_cell_angle_beta     113.28967104169506
_cell_angle_gamma    90.0

_space_group_name_H-M_alt    "P 1"
_space_group_IT_number       1

loop_
  _space_group_symop_operation_xyz
  'x, y, z'

loop_
  _atom_site_type_symbol
  _atom_site_label
  _atom_site_symmetry_multiplicity
  _atom_site_fract_x
  _atom_site_fract_y
  _atom_site_fract_z
  _atom_site_occupancy
  H   H1        1.0  0.5791328120718832  0.8656194192730717  0.7225874981393127  1.0000
  H   H2        1.0  0.5791328120649237  0.13438058090067073  0.22258749775676542  1.0000
  H   H3        1.0  0.11897664932160712  0.7599034262051134  0.600885106529643  1.0000
  H   H4        1.0  0.11897664931911452  0.2400965739686291  0.10088510694393418  1.0000
  H   H5        1.0  0.23161184848559965  0.6732158488876154  0.6476865457997869  1.0000
  H   H6        1.0  0.23161184847864025  0.3267841512861271  0.14768654541723966  1.0000
  H   H7        1.0  0.44631947404856137  0.7223672825405264  0.704282766225246  1.0000
  H   H8        1.0  0.44631947404160205  0.27763271690428615  0.20428276584269875  1.0000
  H   H9        1.0  0.16090335422686688  0.9213273991681512  0.5907020175428201  1.0000
  H   H10       1.0  0.16090335421990754  0.07867260100559136  0.09070201716027292  1.0000
  H   H11       1.0  0.4994492690046285  0.023308269338523604  0.6708668007887895  1.0000
  H   H12       1.0  0.4994492690021358  0.976691730835219  0.17086680120308056  1.0000
  H   H13       1.0  0.5820714078088346  0.047312831587417135  0.44508201135742564  1.0000
  H   H14       1.0  0.582071407815794  0.9526871685863253  0.9450820117399729  1.0000
  H   H15       1.0  0.7712107873268108  0.7284451557439702  0.516787516842223  1.0000
  H   H16       1.0  0.7712107873198514  0.2715548437008424  0.01678751645967567  1.0000
  H   H17       1.0  0.38999162934757964  0.7775487825213075  0.4226133212025392  1.0000
  H   H18       1.0  0.38999162935007226  0.222451217652435  0.9226133207882481  1.0000
  H   H19       1.0  0.9586929176290866  0.011124741221660735  0.5418016821435524  1.0000
  H   H20       1.0  0.9586929176265941  0.9888752589520817  0.041801682557843625  1.0000
  H   H21       1.0  0.29583846934470465  0.6877951673482889  0.923157500440459  1.0000
  H   H22       1.0  0.2958384693377453  0.3122048328254536  0.4231575000579117  1.0000
  H   H23       1.0  0.3752443952178284  0.42494816471182395  0.9481751267841387  1.0000
  H   H24       1.0  0.37524439521086905  0.5750518354619186  0.44817512640159135  1.0000
  H   H25       1.0  0.25874455579497413  0.5109923883908191  0.9212224626984226  1.0000
  H   H26       1.0  0.25874455578801475  0.48900761178292346  0.4212224623158752  1.0000
  H   H27       1.0  0.45420623054685266  0.8151738643958889  0.9534672096063601  1.0000
  H   H28       1.0  0.45420623054436016  0.1848261357778536  0.4534672100206513  1.0000
  H   H29       1.0  0.5660728418410783  0.473195831559713  0.9865955652192391  1.0000
  H   H30       1.0  0.566072841834119  0.5268041686140296  0.4865955648366918  1.0000
  H   H31       1.0  0.6474371986959356  0.7650579134519602  0.9917207461852061  1.0000
  H   H32       1.0  0.6474371986889763  0.2349420859928524  0.49172074580265884  1.0000
  H   H33       1.0  0.11724983110890147  0.9020970603251658  0.3291810726012946  1.0000
  H   H34       1.0  0.11724983111139406  0.0979029391196467  0.8291810721870034  1.0000
  H   H35       1.0  0.2315217252388885  0.9891849784032322  0.35435256616034694  1.0000
  H   H36       1.0  0.23152172524584785  0.010815021770510387  0.8543525665428943  1.0000
  H   H37       1.0  0.030365080432006537  0.2907678026652839  0.3260733822231009  1.0000
  H   H38       1.0  0.030365080438965894  0.7092321975084587  0.8260733826056482  1.0000
  H   H39       1.0  0.19122476648615566  0.16591378682606214  0.3570174116380573  1.0000
  H   H40       1.0  0.19122476649311498  0.8340862133476804  0.8570174120206046  1.0000
  H   H41       1.0  0.9248915493022919  0.9476760254285469  0.2880655751820572  1.0000
  H   H42       1.0  0.9248915493047845  0.052323974745195616  0.7880655747677661  1.0000
  H   H43       1.0  0.8365488850833511  0.2381457968618604  0.2823408319443757  1.0000
  H   H44       1.0  0.8365488850903104  0.7618542033118821  0.782340832326923  1.0000
  H   H45       1.0  0.9081799947658237  0.4267951480147248  0.3241323525461507  1.0000
  H   H46       1.0  0.9081799947683161  0.5732048521590177  0.8241323521318595  1.0000
  H   H47       1.0  0.7252822250950204  0.7472463895187405  0.26897258867076534  1.0000
  H   H48       1.0  0.7252822251019798  0.25275361065500207  0.7689725890533127  1.0000
  H   H49       1.0  0.5357406913959685  0.464244284404949  0.23821316932451653  1.0000
  H   H50       1.0  0.5357406913984611  0.5357557157687934  0.7382131689102253  1.0000
  H   H51       1.0  0.10481831025968837  0.6972906122002561  0.35968503107344585  1.0000
  H   H52       1.0  0.10481831026218094  0.30270938797348634  0.8596850306591546  1.0000
  H   H53       1.0  0.6744713383528708  0.9081220277875235  0.21270302900219087  1.0000
  H   H54       1.0  0.6744713383598302  0.09187797238621902  0.7127030293847381  1.0000
  H   H55       1.0  0.5796465636927938  0.8249333379072905  0.1994222761148909  1.0000
  H   H56       1.0  0.5796465636952863  0.17506666226645212  0.6994222757005997  1.0000
  H   H57       1.0  0.11056206607821166  0.8168006095105012  0.0962901493638955  1.0000
  H   H58       1.0  0.11056206608517101  0.18319939066324137  0.5962901497464428  1.0000
  H   H59       1.0  0.8561828514947312  0.6505112451346198  0.03826976374283795  1.0000
  H   H60       1.0  0.8561828514972238  0.34948875503912263  0.5382697633285469  1.0000
  H   H61       1.0  0.9060783751813756  0.7694578225437794  0.03908091579165076  1.0000
  H   H62       1.0  0.9060783751838681  0.23054217690103315  0.5390809153773597  1.0000
  H   H63       1.0  0.3184613850612115  0.7538330886802499  0.166282182534673  1.0000
  H   H64       1.0  0.3184613850637041  0.24616691149349268  0.6662821821203818  1.0000
  H   H65       1.0  0.3553225799646346  0.585906520501783  0.19586464174839024  1.0000
  H   H66       1.0  0.35532257997159394  0.41409347967195953  0.6958646421309376  1.0000
  H   H67       1.0  0.0029215111737045216  0.5202822370718742  0.09677522387584361  1.0000
  H   H68       1.0  0.0029215111761971076  0.47971776310186826  0.5967752234615524  1.0000
  H   H69       1.0  0.8212553090341653  0.44236536520181696  0.05413299038519061  1.0000
  H   H70       1.0  0.8212553090411248  0.5576346349719256  0.5541329907677379  1.0000
  H   H71       1.0  0.9176821229294498  0.36107173593309694  0.07007362286385217  1.0000
  H   H72       1.0  0.9176821229364093  0.6389282642406455  0.5700736232463995  1.0000
  C   C1        1.0  0.28809887200217993  0.8136846370326692  0.6446646374814586  1.0000
  C   C2        1.0  0.28809887199522055  0.18631536314107328  0.14466463709891136  1.0000
  C   C3        1.0  0.48371247821284596  0.873108916491602  0.6935002052706609  1.0000
  C   C4        1.0  0.48371247820588664  0.1268910836821404  0.19350020488811356  1.0000
  C   C5        1.0  0.3231133177675706  0.98753815053755  0.6279492849501114  1.0000
  C   C6        1.0  0.3231133177606112  0.012461849636192604  0.12794928456756408  1.0000
  C   C7        1.0  0.41107338217193573  0.7956573957351649  0.6845712708762131  1.0000
  C   C8        1.0  0.4110733821649764  0.20434260443857755  0.18457127049366578  1.0000
  C   C9        1.0  0.6244737344826454  0.976400943883562  0.4600454263235333  1.0000
  C   C10       1.0  0.6244737344851381  0.023599056290180595  0.960045425909242  1.0000
  C   C11       1.0  0.5529422713666927  0.8948219064378262  0.4484680609262951  1.0000
  C   C12       1.0  0.5529422713691852  0.10517809373591623  0.9484680605120038  1.0000
  C   C13       1.0  0.7300474446722716  0.7996484326694241  0.5003955346531966  1.0000
  C   C14       1.0  0.7300474446653121  0.20035156750431848  0.0003955342706493483  1.0000
  C   C15       1.0  0.9300827290791439  0.8555475547819849  0.5397060195897564  1.0000
  C   C16       1.0  0.9300827290721845  0.1444524453917577  0.039706019207209134  1.0000
  C   C17       1.0  0.7463127102442221  0.9736283433692628  0.4910005447903853  1.0000
  C   C18       1.0  0.7463127102467146  0.026371656804479695  0.9910005443760941  1.0000
  C   C19       1.0  0.8015190897091601  0.8806260970145547  0.50951579530409  1.0000
  C   C20       1.0  0.8015190897066676  0.11937390315918782  0.009515795718381239  1.0000
  C   C21       1.0  0.4233569743466601  0.9188607582839425  0.4108142187109373  1.0000
  C   C22       1.0  0.4233569743536194  0.0811392411608699  0.9108142190934845  1.0000
  C   C23       1.0  0.6088200604510506  0.8022530403259194  0.4724048535765588  1.0000
  C   C24       1.0  0.6088200604535432  0.19774695984782312  0.9724048531622677  1.0000
  C   C25       1.0  0.5557603867929265  0.7023828276841484  0.4727025938125604  1.0000
  C   C26       1.0  0.5557603867998858  0.29761717248959424  0.9727025941951079  1.0000
  C   C27       1.0  0.8013184305424405  0.07342532242464755  0.5034828143122068  1.0000
  C   C28       1.0  0.8013184305354811  0.9265746770201649  0.003482813929659555  1.0000
  C   C29       1.0  0.3868087909692057  0.6685392284828877  0.9424310708129096  1.0000
  C   C30       1.0  0.38680879096224635  0.3314607716908548  0.4424310704303622  1.0000
  C   C31       1.0  0.4207896232574892  0.5686013252123694  0.9541936466954997  1.0000
  C   C32       1.0  0.4207896232549965  0.4313986749613731  0.4541936471097908  1.0000
  C   C33       1.0  0.6220711908200641  0.6157464030310305  0.9938678381696613  1.0000
  C   C34       1.0  0.6220711908131048  0.384253597142712  0.493867837787114  1.0000
  C   C35       1.0  0.4716543401619311  0.7370140744088002  0.9582957178969219  1.0000
  C   C36       1.0  0.47165434015943847  0.26298592576494234  0.4582957183112131  1.0000
  C   C37       1.0  0.8642114596052108  0.0891677493297278  0.279689960937263  1.0000
  C   C38       1.0  0.8642114596121704  0.9108322508440148  0.7796899613198103  1.0000
  C   C39       1.0  0.013745918488500467  0.21240384666798862  0.31870399324994275  1.0000
  C   C40       1.0  0.013745918495459827  0.7875961527768238  0.81870399363249  1.0000
  C   C41       1.0  0.06785885889991346  0.04505198805880706  0.32163672017583794  1.0000
  C   C42       1.0  0.06785885890687282  0.9549480121149355  0.8216367205583851  1.0000
  C   C43       1.0  0.10012000395651435  0.14531782965747633  0.33440234362469456  1.0000
  C   C44       1.0  0.10012000395900696  0.8546821697873362  0.8344023432104034  1.0000
  C   C45       1.0  0.9400629899773943  0.5793882000789627  0.3271583684977739  1.0000
  C   C46       1.0  0.9400629899843537  0.4206117993658497  0.8271583688803211  1.0000
  C   C47       1.0  0.8671112433045418  0.4980870431498928  0.3122411011149771  1.0000
  C   C48       1.0  0.8671112433070345  0.5019129570238496  0.8122411007006859  1.0000
  C   C49       1.0  0.6926403300982263  0.5951603104724491  0.26918206531353317  1.0000
  C   C50       1.0  0.6926403301051857  0.40483968970129347  0.7691820656960804  1.0000
  C   C51       1.0  0.8858584861562312  0.6724692984389338  0.30713718844114385  1.0000
  C   C52       1.0  0.8858584861587239  0.32753070173480864  0.8071371880268527  1.0000
  C   C53       1.0  0.7652354125880025  0.6757007633185764  0.2813140195558407  1.0000
  C   C54       1.0  0.765235412590495  0.3242992361262362  0.7813140191415494  1.0000
  C   C55       1.0  0.06912160426615895  0.5552275265316442  0.3647118872338918  1.0000
  C   C56       1.0  0.06912160426865152  0.44477247364209826  0.8647118868196005  1.0000
  C   C57       1.0  0.9388084015565177  0.7723301691135271  0.307449584536059  1.0000
  C   C58       1.0  0.9388084015634771  0.22766983106021527  0.8074495849186063  1.0000
  C   C59       1.0  0.6883596520150467  0.40156058122640265  0.26604423649912423  1.0000
  C   C60       1.0  0.688359652022006  0.5984394189473399  0.7660442368816716  1.0000
  C   C61       1.0  0.7454031075419438  0.5014665814165943  0.2821068286051458  1.0000
  C   C62       1.0  0.745403107548903  0.4985334187571483  0.782106828987693  1.0000
  C   C63       1.0  0.5653307276314448  0.6220934584291726  0.2421314223906994  1.0000
  C   C64       1.0  0.5653307276384041  0.37790654174456983  0.7421314227732467  1.0000
  C   C65       1.0  0.1822712223853662  0.5399145523944  0.14894751717520646  1.0000
  C   C66       1.0  0.18227122239232552  0.46008544777934246  0.6489475175577538  1.0000
  C   C67       1.0  0.12991754314441387  0.7396783041676157  0.11009505723267918  1.0000
  C   C68       1.0  0.12991754315137322  0.26032169600612687  0.6100950576152264  1.0000
  C   C69       1.0  0.03805478766721115  0.6705730613343632  0.08987276649020798  1.0000
  C   C70       1.0  0.038054787674170504  0.32942693883937924  0.5898727668727552  1.0000
  C   C71       1.0  0.2427561532892317  0.7061653031601608  0.14841503166987316  1.0000
  C   C72       1.0  0.2427561532961911  0.2938346970135817  0.6484150320524205  1.0000
  N   N1        1.0  0.44145911577615055  0.9650335374835878  0.665347932011853  1.0000
  N   N2        1.0  0.441459115773658  0.03496646269015475  0.16534793242614415  1.0000
  N   N3        1.0  0.2506396262418938  0.9078371393376146  0.619250406913637  1.0000
  N   N4        1.0  0.25063962623940117  0.09216286083612803  0.11925040732792817  1.0000
  N   N5        1.0  0.20857535392470258  0.745182338144222  0.6318941296426291  1.0000
  N   N6        1.0  0.20857535392221  0.2548176620295206  0.13189413005692038  1.0000
  N   N7        1.0  0.5363570072434304  0.5475676944031455  0.979908864574907  1.0000
  N   N8        1.0  0.5363570072364711  0.45243230577059695  0.4799088641923598  1.0000
  N   N9        1.0  0.585671753659283  0.7112804952473152  0.9833294953699261  1.0000
  N   N10       1.0  0.5856717536523237  0.28871950492642734  0.48332949498737887  1.0000
  N   N11       1.0  0.34717410762753076  0.49637198233152613  0.9431224534449213  1.0000
  N   N12       1.0  0.3471741076250382  0.5036280178422163  0.44312245385921245  1.0000
  N   N13       1.0  0.14347492222653158  0.9738560173727185  0.3334167763608449  1.0000
  N   N14       1.0  0.14347492222902414  0.026143982801024028  0.8334167759465536  1.0000
  N   N15       1.0  0.9525478586334379  0.02232585535757537  0.29477105241474794  1.0000
  N   N16       1.0  0.9525478586359306  0.9776741440872372  0.7947710520004567  1.0000
  N   N17       1.0  0.9001429979736532  0.18531449848337708  0.29213594986415603  1.0000
  N   N18       1.0  0.9001429979761458  0.8146855016903655  0.7921359494498649  1.0000
  N   N19       1.0  0.2672617237578274  0.609767541121572  0.1665099470106012  1.0000
  N   N20       1.0  0.26726172376032004  0.39023245832324044  0.66650994659631  1.0000
  N   N21       1.0  0.9262785865640079  0.6971223882716351  0.05269657410666098  1.0000
  N   N22       1.0  0.9262785865709673  0.3028776111731774  0.5526965744892083  1.0000
  N   N23       1.0  0.06760730776279128  0.5743687864811408  0.11018313971119102  1.0000
  N   N24       1.0  0.06760730776528387  0.42563121296367173  0.6101831392968998  1.0000
  O   O1        1.0  0.28351719580427037  0.07078143637385041  0.6033842594616461  1.0000
  O   O2        1.0  0.28351719579731105  0.9292185637998921  0.10338425907909879  1.0000
  O   O3        1.0  0.961826128344182  0.7677545441503081  0.5544587880718749  1.0000
  O   O4        1.0  0.9618261283416895  0.23224545602343438  0.05445878848616602  1.0000
  O   O5        1.0  0.44515721773213224  0.6933816535155428  0.44952973846222233  1.0000
  O   O6        1.0  0.4451572177390916  0.30661834665819965  0.9495297388447697  1.0000
  O   O7        1.0  0.3477471314056246  0.8490432925035927  0.4003950330852283  1.0000
  O   O8        1.0  0.34774713141258395  0.15095670767014988  0.9003950334677756  1.0000
  O   O9        1.0  0.9156639294841489  0.08246745371339828  0.5341052712106491  1.0000
  O   O10       1.0  0.9156639294816563  0.9175325464603443  0.034105271624940287  1.0000
  O   O11       1.0  0.0050243201436969784  0.9244369155127673  0.5502766714997877  1.0000
  O   O12       1.0  0.005024320136737622  0.07556308466097521  0.050276671117240324  1.0000
  O   O13       1.0  0.38894153999498976  0.004961155323575434  0.39006764075469325  1.0000
  O   O14       1.0  0.38894154000194914  0.9950388448501671  0.8900676411372406  1.0000
  O   O15       1.0  0.6243333170235289  0.630115484223334  0.49679275159726743  1.0000
  O   O16       1.0  0.6243333170304882  0.36988451595040855  0.9967927519798147  1.0000
  O   O17       1.0  0.7399108448381393  0.14785254531655434  0.4864747639966216  1.0000
  O   O18       1.0  0.7399108448406317  0.8521474548571882  0.9864747635823303  1.0000
  O   O19       1.0  0.7251964409833355  0.590048329322047  0.015478833363145851  1.0000
  O   O20       1.0  0.7251964409902949  0.4099516701227655  0.5154788337456931  1.0000
  O   O21       1.0  0.7612279760643961  0.06382282399374868  0.2562474110687791  1.0000
  O   O22       1.0  0.7612279760713554  0.9361771761799939  0.7562474114513263  1.0000
  O   O23       1.0  0.049880149439052675  0.7823616457788172  0.33381159201797334  1.0000
  O   O24       1.0  0.04988014944154526  0.21763835439492543  0.833811591603682  1.0000
  O   O25       1.0  0.5339377505267789  0.7095448764155033  0.22725233709137768  1.0000
  O   O26       1.0  0.5339377505292715  0.2904551230293092  0.7272523366770866  1.0000
  O   O27       1.0  0.10333628593141093  0.4689602014272291  0.3831506063672598  1.0000
  O   O28       1.0  0.10333628593390351  0.5310397980175834  0.8831506059529686  1.0000
  O   O29       1.0  0.49160594724937096  0.5531052577029603  0.2356010967226233  1.0000
  O   O30       1.0  0.4916059472518636  0.44689474247078215  0.735601096308332  1.0000
  O   O31       1.0  0.7487716305478925  0.32754034912366614  0.2765667187857694  1.0000
  O   O32       1.0  0.7487716305503852  0.6724596510500764  0.7765667183714782  1.0000
  O   O33       1.0  0.5750980613138691  0.3936230340483536  0.240774242695331  1.0000
  O   O34       1.0  0.5750980613163615  0.606376966125389  0.7407742422810398  1.0000
  O   O35       1.0  0.8690950950068759  0.843873083694005  0.2801403228387681  1.0000
  O   O36       1.0  0.8690950950138353  0.1561269164797376  0.7801403232213153  1.0000
  O   O37       1.0  0.14556601148327886  0.6254089426990128  0.3787707116792577  1.0000
  O   O38       1.0  0.1455660114902382  0.37459105747472976  0.8787707120618049  1.0000
  O   O39       1.0  0.5917202832540348  0.8900392172386283  0.1716366891666008  1.0000
  O   O40       1.0  0.5917202832609941  0.10996078220618416  0.671636689549148  1.0000
  O   O41       1.0  0.20566425716553716  0.4523308999414853  0.16717002873927647  1.0000
  O   O42       1.0  0.20566425717249653  0.5476690995033272  0.6671700291218237  1.0000
  O   O43       1.0  0.9058933901760907  0.42901956107863387  0.08841748850479292  1.0000
  O   O44       1.0  0.90589339018305  0.5709804390951086  0.5884174888873401  1.0000
