data_image0
_chemical_formula_structural       H26C24N4Br10
_chemical_formula_sum              "H26 C24 N4 Br10"
_cell_length_a       7.504135744746973
_cell_length_b       9.134913613318394
_cell_length_c       12.579440193835051
_cell_angle_alpha    92.21025783722776
_cell_angle_beta     100.31438701503258
_cell_angle_gamma    99.94578801213031

_space_group_name_H-M_alt    "P 1"
_space_group_IT_number       1

loop_
  _space_group_symop_operation_xyz
  'x, y, z'

loop_
  _atom_site_type_symbol
  _atom_site_label
  _atom_site_symmetry_multiplicity
  _atom_site_fract_x
  _atom_site_fract_y
  _atom_site_fract_z
  _atom_site_occupancy
  H   H1        1.0  0.7781930468486773  0.226847316581073  0.32841354420512037  1.0000
  H   H2        1.0  0.22180695249737392  0.7731526827379764  0.6715864558639462  1.0000
  H   H3        1.0  0.6929735945294594  0.6557496049203654  0.23944933984938066  1.0000
  H   H4        1.0  0.30702640505126816  0.34425039550972153  0.7605506602160983  1.0000
  H   H5        1.0  0.7192490132243292  0.586915865564115  0.05077373296860396  1.0000
  H   H6        1.0  0.2807509863563983  0.413084134865972  0.9492262670968752  1.0000
  H   H7        1.0  0.8073120738882757  0.1540657235539378  0.15177193640587938  1.0000
  H   H8        1.0  0.19268792569245174  0.8459342768761491  0.8482280636595997  1.0000
  H   H9        1.0  0.8045658495196513  0.20315311923682514  0.9646290079158429  1.0000
  H   H10       1.0  0.1954341500610763  0.7968468811932619  0.035370992149636134  1.0000
  H   H11       1.0  0.9122061690861303  0.3890194779533229  0.9503872544584513  1.0000
  H   H12       1.0  0.08779383049459745  0.610980522476764  0.049612745607027824  1.0000
  H   H13       1.0  0.6713843472309552  0.3375736877725102  0.9120887726975939  1.0000
  H   H14       1.0  0.32861565368171464  0.6624263126556883  0.0879112273670301  1.0000
  H   H15       1.0  0.5428739431364502  0.7565159905925014  0.4421260652464306  1.0000
  H   H16       1.0  0.45712605620960106  0.2434840087265479  0.5578739348226359  1.0000
  H   H17       1.0  0.702222676373161  0.8176462111873237  0.6356013789352819  1.0000
  H   H18       1.0  0.2977773232075665  0.18235378924276335  0.36439862113019716  1.0000
  H   H19       1.0  0.9401890418144079  0.24731038635093508  0.5435887146069568  1.0000
  H   H20       1.0  0.059810959098261826  0.7526896140772634  0.4564112854576673  1.0000
  H   H21       1.0  0.9212362122101713  0.19720991148859662  0.7444886202501741  1.0000
  H   H22       1.0  0.07876378870249855  0.8027900889396019  0.25551137981444993  1.0000
  H   H23       1.0  0.07775538784026517  0.07553083597831092  0.7329052552928691  1.0000
  H   H24       1.0  0.9222446117404624  0.9244691644517761  0.2670947447726099  1.0000
  H   H25       1.0  0.8700292948469267  0.008450810379353645  0.7778087880322374  1.0000
  H   H26       1.0  0.1299707060657433  0.9915491900488449  0.22219121203238662  1.0000
  C   C1        1.0  0.7409588343500056  0.4438007333980569  0.29533862016416385  1.0000
  C   C2        1.0  0.2590411665626643  0.5561992670301416  0.7046613799004603  1.0000
  C   C3        1.0  0.7206927687646557  0.546623465784033  0.21775218950636485  1.0000
  C   C4        1.0  0.27930723214801423  0.4533765346441655  0.7822478105582592  1.0000
  C   C5        1.0  0.7349843994102794  0.5064225437318894  0.11221077916876274  1.0000
  C   C6        1.0  0.26501560100532046  0.49357745550044724  0.8877892200893666  1.0000
  C   C7        1.0  0.7697779295970981  0.3651478086952522  0.08399758983315067  1.0000
  C   C8        1.0  0.23022206974895326  0.6348521906237973  0.916002410235916  1.0000
  C   C9        1.0  0.7846934705801032  0.2672654131564207  0.16560398073994181  1.0000
  C   C10       1.0  0.2153065303325667  0.7327345872717779  0.8343960193246822  1.0000
  C   C11       1.0  0.7902890665514591  0.3202973683410943  0.9718663111791647  1.0000
  C   C12       1.0  0.2097109330292684  0.6797026320889927  0.028133688886314335  1.0000
  C   C13       1.0  0.6629665286795292  0.9703965318445306  0.39444468937781485  1.0000
  C   C14       1.0  0.33703347066652195  0.02960346747451883  0.6055553106912518  1.0000
  C   C15       1.0  0.633334937409858  0.8631535677956463  0.4680561585783565  1.0000
  C   C16       1.0  0.36666506193619314  0.13684643152340306  0.5319438414907102  1.0000
  C   C17       1.0  0.7222402635938485  0.8987209449440988  0.5753257373010192  1.0000
  C   C18       1.0  0.27775973575220264  0.10127905437495058  0.4246742627680474  1.0000
  C   C19       1.0  0.8356685543597957  0.038185784847981935  0.6067492510246982  1.0000
  C   C20       1.0  0.16433144655287427  0.9618142155802164  0.39325074903992585  1.0000
  C   C21       1.0  0.8552420729558854  0.13633639849559576  0.5253074073300134  1.0000
  C   C22       1.0  0.14475792612777208  0.8636636007386294  0.4746925919289708  1.0000
  C   C23       1.0  0.9306217004904248  0.08187732803785913  0.7216745229403485  1.0000
  C   C24       1.0  0.0693782990903028  0.9181226723922279  0.2783254771251306  1.0000
  N   N1        1.0  0.7697630902786572  0.3075327963639036  0.2674127803701793  1.0000
  N   N2        1.0  0.23023690930207047  0.6924672040661833  0.7325872196952998  1.0000
  N   N3        1.0  0.7712754570804852  0.10287537312471828  0.42117053697991985  1.0000
  N   N4        1.0  0.22872454359750835  0.8971246261924427  0.5788294630882918  1.0000
  Br  Br1       1.0  0.7351995424306255  0.4859345770378849  0.4424258572873788  1.0000
  Br  Br2       1.0  0.26480045715010214  0.5140654233922021  0.5575741427781002  1.0000
  Br  Br3       1.0  0.5434716593182748  0.9311787862334053  0.24639486286383527  1.0000
  Br  Br4       1.0  0.45652834159439504  0.06882121419479315  0.7536051372007888  1.0000
  Br  Br5       1.0  0.701911078143109  0.883736637982817  0.9904807711651813  1.0000
  Br  Br6       1.0  0.298088922507167  0.11626336236055722  0.009519228089360255  1.0000
  Br  Br7       1.0  0.7368324363212678  0.696792433747781  0.8444764274016381  1.0000
  Br  Br8       1.0  0.26316756325945956  0.3032075666823058  0.15552357266384087  1.0000
  Br  Br9       1.0  0.7654928707297596  0.49478612795144045  0.6994639894933311  1.0000
  Br  Br10      1.0  0.23450712861629167  0.5052138713676091  0.3005360105757355  1.0000
