data_image0
_chemical_formula_structural       H56C36N4Br16
_chemical_formula_sum              "H56 C36 N4 Br16"
_cell_length_a       7.429210716047963
_cell_length_b       11.38249489749808
_cell_length_c       16.33073656189255
_cell_angle_alpha    90.0
_cell_angle_beta     102.07368328677838
_cell_angle_gamma    90.0

_space_group_name_H-M_alt    "P 1"
_space_group_IT_number       1

loop_
  _space_group_symop_operation_xyz
  'x, y, z'

loop_
  _atom_site_type_symbol
  _atom_site_label
  _atom_site_symmetry_multiplicity
  _atom_site_fract_x
  _atom_site_fract_y
  _atom_site_fract_z
  _atom_site_occupancy
  H   H1        1.0  0.5246687415395976  0.9322458068777526  0.8579524773414414  1.0000
  H   H2        1.0  0.9753312583081638  0.4322458067678505  0.6420475227095601  1.0000
  H   H3        1.0  0.4753312586182111  0.06775419334205153  0.14204752227563802  1.0000
  H   H4        1.0  0.02466874078730423  0.5677541934519535  0.35795247753209203  1.0000
  H   H5        1.0  0.5630673859689276  0.7787800916957535  0.8693202600033644  1.0000
  H   H6        1.0  0.9369326138788338  0.27878009246439334  0.6306797400476369  1.0000
  H   H7        1.0  0.4369326144733184  0.22121990764550875  0.13067974023990697  1.0000
  H   H8        1.0  0.06306738521663433  0.7212199077554109  0.3693202601940151  1.0000
  H   H9        1.0  0.3353682442258983  0.8337642832667566  0.8519695305958207  1.0000
  H   H10       1.0  0.16463175662191065  0.33376428315685447  0.6480304693056341  1.0000
  H   H11       1.0  0.6646317562163477  0.16623571695304765  0.14803046964745067  1.0000
  H   H12       1.0  0.8353682438203355  0.6662357170629497  0.35196953093763733  1.0000
  H   H13       1.0  0.5322817515406926  0.017663204930949885  0.7311324253587151  1.0000
  H   H14       1.0  0.9677182483070688  0.517663205040852  0.7688675746922863  1.0000
  H   H15       1.0  0.46771824727033806  0.9823367952888543  0.26886757425674496  1.0000
  H   H16       1.0  0.03228175213517725  0.4823367951789522  0.2311324255509851  1.0000
  H   H17       1.0  0.5036568967178584  0.005841121001917956  0.5766451585069557  1.0000
  H   H18       1.0  0.996343103129903  0.50584112111182  0.9233548415440457  1.0000
  H   H19       1.0  0.49634310343995036  0.9941588792178863  0.42335484111012367  1.0000
  H   H20       1.0  0.0036568973123430317  0.4941588791079841  0.07664515869922565  1.0000
  H   H21       1.0  0.41571371447174493  0.8121851011795334  0.5044760207186372  1.0000
  H   H22       1.0  0.08428628502928588  0.3121851010696312  0.9955239791811981  1.0000
  H   H23       1.0  0.5842862856860638  0.18781489904027082  0.49552397889844213  1.0000
  H   H24       1.0  0.9157137154129601  0.6878148991501729  0.004476021062073175  1.0000
  H   H25       1.0  0.35564803778915277  0.6153120122671403  0.5102197355799507  1.0000
  H   H26       1.0  0.14435196199631548  0.11531201215723817  0.9897802649460766  1.0000
  H   H27       1.0  0.6443519626530932  0.38468798707412194  0.48978026466332064  1.0000
  H   H28       1.0  0.8556480370991525  0.884687987184024  0.010219735295575412  1.0000
  H   H29       1.0  0.19111659954252314  0.5914133624149192  0.5729509197525888  1.0000
  H   H30       1.0  0.3088834013052858  0.09141336230501705  0.9270490801488659  1.0000
  H   H31       1.0  0.8088834008997229  0.408586637804885  0.4270490804906826  1.0000
  H   H32       1.0  0.6911165988525229  0.9085866370362451  0.07295091946821347  1.0000
  H   H33       1.0  0.4195438798779486  0.5363934510826808  0.6056292670886749  1.0000
  H   H34       1.0  0.08045611962308236  0.03639345097277869  0.8943707328111605  1.0000
  H   H35       1.0  0.58045612027986  0.46360654913712335  0.39437073252840443  1.0000
  H   H36       1.0  0.9195438808191638  0.9636065492470254  0.10562926743211086  1.0000
  H   H37       1.0  0.2620247920460086  0.5793171575635325  0.7097631190542064  1.0000
  H   H38       1.0  0.23797520745502226  0.07931715745363041  0.790236880845629  1.0000
  H   H39       1.0  0.7379752081118001  0.4206828426562717  0.290236880562873  1.0000
  H   H40       1.0  0.7620247929872238  0.9206828427661737  0.20976311939764236  1.0000
  H   H41       1.0  0.30892739894852944  0.6621725226212667  0.8025162133071425  1.0000
  H   H42       1.0  0.19107260055250141  0.16217252338990662  0.697483786592693  1.0000
  H   H43       1.0  0.6910726012092792  0.33782747671999547  0.1974837863099369  1.0000
  H   H44       1.0  0.8089273998897446  0.8378274768298976  0.3025162136505784  1.0000
  H   H45       1.0  0.5075541512545985  0.48480149648149057  0.8190219098628869  1.0000
  H   H46       1.0  0.9924458496555036  0.9848014965913927  0.6809780895635417  1.0000
  H   H47       1.0  0.49244584890321036  0.5151985037383136  0.1809780897541924  1.0000
  H   H48       1.0  0.007554150502305026  0.015198503628411502  0.3190219100535377  1.0000
  H   H49       1.0  0.6495862482028981  0.6108826353639201  0.8218383804331544  1.0000
  H   H50       1.0  0.8504137516448633  0.11088263525401795  0.6781616196178469  1.0000
  H   H51       1.0  0.35041375089256993  0.38911736485588416  0.17816161980849768  1.0000
  H   H52       1.0  0.1495862485129454  0.8891173649657862  0.32183837999923237  1.0000
  H   H53       1.0  0.597180638119622  0.5228729732449242  0.7300320208583707  1.0000
  H   H54       1.0  0.902819361443702  0.022872973135022127  0.7699679785664387  1.0000
  H   H55       1.0  0.40281936203818675  0.47712702697487996  0.26996797875870865  1.0000
  H   H56       1.0  0.09718063736732858  0.977127027084782  0.23003202104902146  1.0000
  C   C1        1.0  0.4705348494044708  0.8459996456591097  0.8355158574983569  1.0000
  C   C2        1.0  0.02946515038099737  0.3459996464277496  0.6644841430276703  1.0000
  C   C3        1.0  0.5294651496909972  0.15400035368215245  0.16448414274329512  1.0000
  C   C4        1.0  0.9705348500612486  0.6540003537920545  0.33551585721560095  1.0000
  C   C5        1.0  0.45562857094380427  0.8389063615656771  0.7432228321084059  1.0000
  C   C6        1.0  0.04437142855722668  0.3389063614557751  0.7567771677914297  1.0000
  C   C7        1.0  0.5443714294984419  0.16109363865412699  0.2567771681348655  1.0000
  C   C8        1.0  0.955628570253804  0.661093638764029  0.24322283182403062  1.0000
  C   C9        1.0  0.491535659519152  0.936043230060389  0.6976567129066781  1.0000
  C   C10       1.0  0.008464341328656848  0.43604323082902896  0.8023432869947766  1.0000
  C   C11       1.0  0.5084643409230939  0.0639567692808731  0.30234328733659327  1.0000
  C   C12       1.0  0.991535658829152  0.5639567693907752  0.19765671262230278  1.0000
  C   C13       1.0  0.4763860737376136  0.9286895715915064  0.6115538133359414  1.0000
  C   C14       1.0  0.023613927110195245  0.42868957148160436  0.8884461865655132  1.0000
  C   C15       1.0  0.5236139267046325  0.07131042862829773  0.38844618690732996  1.0000
  C   C16       1.0  0.9763860730476134  0.5713104278596578  0.11155381305156616  1.0000
  C   C17       1.0  0.4265489083932762  0.8224177471019664  0.5716186267143334  1.0000
  C   C18       1.0  0.07345109110775458  0.3224177469920644  0.928381373185502  1.0000
  C   C19       1.0  0.5734510917645325  0.1775822522392957  0.42838137290274597  1.0000
  C   C20       1.0  0.9265489079877134  0.6775822523491977  0.07161862705615009  1.0000
  C   C21       1.0  0.3912609854180091  0.7248497262066436  0.6171562287287287  1.0000
  C   C22       1.0  0.10873901408302178  0.2248497260967414  0.8828437711711068  1.0000
  C   C23       1.0  0.6087390150242369  0.27515027401316067  0.38284377151454263  1.0000
  C   C24       1.0  0.891260984728009  0.7751502741230628  0.11715622844435344  1.0000
  C   C25       1.0  0.3373400021481562  0.6103419604015835  0.5748695965637124  1.0000
  C   C26       1.0  0.1626599973528747  0.11034196029168146  0.9251304033361231  1.0000
  C   C27       1.0  0.6626599969473118  0.3896580398182206  0.42513040367793975  1.0000
  C   C28       1.0  0.837340002804934  0.8896580399281226  0.07486959628095634  1.0000
  C   C29       1.0  0.36866021603747307  0.6308914912475331  0.7506326401764877  1.0000
  C   C30       1.0  0.13133978481033587  0.130891491137631  0.749367359724967  1.0000
  C   C31       1.0  0.6313397841203356  0.36910850897227104  0.24936735944059174  1.0000
  C   C32       1.0  0.8686602156319102  0.8691085082036311  0.25063264051830436  1.0000
  C   C33       1.0  0.5414437466937169  0.5586864652491773  0.7819119474678983  1.0000
  C   C34       1.0  0.9585562531540446  0.0586864651392753  0.7180880525831032  1.0000
  C   C35       1.0  0.4585562537485292  0.4413135349706268  0.21808805277537302  1.0000
  C   C36       1.0  0.04144374594142345  0.9413135350805288  0.281911947658549  1.0000
  N   N1        1.0  0.404384823175655  0.7354320968630517  0.701778022070832  1.0000
  N   N2        1.0  0.09561517660981314  0.23543209763169162  0.7982219784551953  1.0000
  N   N3        1.0  0.595615177266591  0.26456790247821044  0.29822197817243934  1.0000
  N   N4        1.0  0.9043848224856549  0.7645679025881125  0.20177802178645676  1.0000
  Br  Br1       1.0  0.9409367355549537  0.9016510099429834  0.5050560716273228  1.0000
  Br  Br2       1.0  0.5590632642928076  0.4016510098330814  0.9949439284236786  1.0000
  Br  Br3       1.0  0.05906326488729236  0.0983489893982787  0.4949439286159485  1.0000
  Br  Br4       1.0  0.44093673614943835  0.5983489895081808  0.005056071819592731  1.0000
  Br  Br5       1.0  0.8179148063633968  0.6597560787530559  0.5384699067036038  1.0000
  Br  Br6       1.0  0.6820851931999273  0.1597560786431538  0.9615300927212057  1.0000
  Br  Br7       1.0  0.182085193794412  0.34024392146674826  0.4615300929134757  1.0000
  Br  Br8       1.0  0.3179148069578814  0.8402439215766503  0.03846990689587367  1.0000
  Br  Br9       1.0  0.8943734994997506  0.7223961296751713  0.6939719401883844  1.0000
  Br  Br10      1.0  0.6056265003480107  0.22239612956526933  0.8060280598626169  1.0000
  Br  Br11      1.0  0.1056265009424954  0.27760387054463276  0.306028060054887  1.0000
  Br  Br12      1.0  0.39437349874745725  0.7776038706545348  0.19397194037903506  1.0000
  Br  Br13      1.0  0.9747203946187873  0.7750010028064225  0.8494678381807304  1.0000
  Br  Br14      1.0  0.525279606575752  0.27500100269652045  0.6505321618718903  1.0000
  Br  Br15      1.0  0.025279605823458708  0.22499899741338164  0.15053216206254103  1.0000
  Br  Br16      1.0  0.4747203935820566  0.7249989975232838  0.34946783774518897  1.0000
