data_image0
_chemical_formula_structural       H80C80N8O16S8
_chemical_formula_sum              "H80 C80 N8 O16 S8"
_cell_length_a       24.303576982519555
_cell_length_b       7.426041535034142
_cell_length_c       11.117489556810483
_cell_angle_alpha    90.0
_cell_angle_beta     90.0
_cell_angle_gamma    90.0

_space_group_name_H-M_alt    "P 1"
_space_group_IT_number       1

loop_
  _space_group_symop_operation_xyz
  'x, y, z'

loop_
  _atom_site_type_symbol
  _atom_site_label
  _atom_site_symmetry_multiplicity
  _atom_site_fract_x
  _atom_site_fract_y
  _atom_site_fract_z
  _atom_site_occupancy
  H   H1        1.0  0.11973411412209017  0.28510630865873093  0.3953224608434791  1.0000
  H   H2        1.0  0.3802658858260748  0.21489369032901096  0.895322460986925  1.0000
  H   H3        1.0  0.6197341140702551  0.21489369032901096  0.6046775394434127  1.0000
  H   H4        1.0  0.8802658857742398  0.28510630865873093  0.1046775392999668  1.0000
  H   H5        1.0  0.8802658857742398  0.7148936906633653  0.6046775394434127  1.0000
  H   H6        1.0  0.6197341140702551  0.7851063089930852  0.1046775392999668  1.0000
  H   H7        1.0  0.3802658858260748  0.7851063089930852  0.3953224608434791  1.0000
  H   H8        1.0  0.11973411412209017  0.7148936906633653  0.895322460986925  1.0000
  H   H9        1.0  0.08909071909691918  0.37899403830725553  0.6162169134490678  1.0000
  H   H10       1.0  0.4109092808512458  0.12100596068048637  0.11621691330562182  1.0000
  H   H11       1.0  0.5890907190450841  0.12100596068048637  0.38378308683782403  1.0000
  H   H12       1.0  0.9109092807994107  0.37899403830725553  0.88378308698127  1.0000
  H   H13       1.0  0.9109092807994107  0.6210059610148407  0.38378308683782403  1.0000
  H   H14       1.0  0.5890907190450841  0.8789940386416097  0.88378308698127  1.0000
  H   H15       1.0  0.4109092808512458  0.8789940386416097  0.6162169134490678  1.0000
  H   H16       1.0  0.08909071909691918  0.6210059610148407  0.11621691330562182  1.0000
  H   H17       1.0  0.17612682252817252  0.4425213923860569  0.7528414816340246  1.0000
  H   H18       1.0  0.32387317741999244  0.05747860794829739  0.2528414814905787  1.0000
  H   H19       1.0  0.6761268224763375  0.05747860794829739  0.2471585186528672  1.0000
  H   H20       1.0  0.8238731773681575  0.4425213923860569  0.7471585187963131  1.0000
  H   H21       1.0  0.8238731773681575  0.5574786069360393  0.2471585186528672  1.0000
  H   H22       1.0  0.6761268224763375  0.9425213927204111  0.7471585187963131  1.0000
  H   H23       1.0  0.32387317741999244  0.9425213927204111  0.7528414816340246  1.0000
  H   H24       1.0  0.17612682252817252  0.5574786069360393  0.2528414814905787  1.0000
  H   H25       1.0  0.2829392337986258  0.4569511056450614  0.7392291252448708  1.0000
  H   H26       1.0  0.21706076614953917  0.04304889468929293  0.23922912600090854  1.0000
  H   H27       1.0  0.7829392337467908  0.04304889468929293  0.26077087414253736  1.0000
  H   H28       1.0  0.7170607665091663  0.4569511056450614  0.7607708742859832  1.0000
  H   H29       1.0  0.7170607665091663  0.5430488950236473  0.26077087414253736  1.0000
  H   H30       1.0  0.7829392337467908  0.9569511059794157  0.7607708742859832  1.0000
  H   H31       1.0  0.21706076614953917  0.9569511059794157  0.7392291252448708  1.0000
  H   H32       1.0  0.2829392337986258  0.5430488950236473  0.23922912600090854  1.0000
  H   H33       1.0  0.3325288884764886  0.3351678640979425  0.49618739930551353  1.0000
  H   H34       1.0  0.16747111147167637  0.16483213623641177  0.9961873994489594  1.0000
  H   H35       1.0  0.8325288884246536  0.16483213623641177  0.5038126000818947  1.0000
  H   H36       1.0  0.6674711114198414  0.3351678640979425  0.0038125999384487257  1.0000
  H   H37       1.0  0.6674711114198414  0.6648321365707661  0.5038126000818947  1.0000
  H   H38       1.0  0.8325288884246536  0.8351678644322968  0.0038125999384487257  1.0000
  H   H39       1.0  0.16747111147167637  0.8351678644322968  0.49618739930551353  1.0000
  H   H40       1.0  0.3325288884764886  0.6648321365707661  0.9961873994489594  1.0000
  H   H41       1.0  0.4194272895439126  0.5081492598980799  0.7951480201377529  1.0000
  H   H42       1.0  0.08057271081571436  0.9918507397583707  0.295148019994307  1.0000
  H   H43       1.0  0.9194272894920776  0.9918507397583707  0.20485198014913888  1.0000
  H   H44       1.0  0.5805727107638793  0.5081492598980799  0.7048519802925848  1.0000
  H   H45       1.0  0.5805727107638793  0.4918507394240163  0.20485198014913888  1.0000
  H   H46       1.0  0.9194272894920776  0.008149260910337982  0.7048519802925848  1.0000
  H   H47       1.0  0.08057271081571436  0.008149260910337982  0.7951480201377529  1.0000
  H   H48       1.0  0.4194272895439126  0.4918507394240163  0.295148019994307  1.0000
  H   H49       1.0  0.5271247795834488  0.7969368016701769  0.15509426936621074  1.0000
  H   H50       1.0  0.9728752206725081  0.7030631979862736  0.6550942695096567  1.0000
  H   H51       1.0  0.027124779635283862  0.7030631979862736  0.8449057309206811  1.0000
  H   H52       1.0  0.4728752207243432  0.7969368016701769  0.3449057307772352  1.0000
  H   H53       1.0  0.4728752207243432  0.2030631976519193  0.8449057309206811  1.0000
  H   H54       1.0  0.027124779635283862  0.29693680268243505  0.3449057307772352  1.0000
  H   H55       1.0  0.9728752206725081  0.29693680268243505  0.15509426936621074  1.0000
  H   H56       1.0  0.5271247795834488  0.2030631976519193  0.6550942695096567  1.0000
  H   H57       1.0  0.553475920424183  0.08811612578692526  0.0594598039982012  1.0000
  H   H58       1.0  0.9465240798317738  0.41188387454742903  0.5594598041416471  1.0000
  H   H59       1.0  0.05347592047601811  0.41188387454742903  0.9405401962886906  1.0000
  H   H60       1.0  0.4465240794721469  0.08811612578692526  0.44054019614524476  1.0000
  H   H61       1.0  0.4465240794721469  0.9118838748817835  0.9405401962886906  1.0000
  H   H62       1.0  0.05347592047601811  0.5881161247746671  0.44054019614524476  1.0000
  H   H63       1.0  0.9465240798317738  0.5881161247746671  0.0594598039982012  1.0000
  H   H64       1.0  0.553475920424183  0.9118838748817835  0.5594598041416471  1.0000
  H   H65       1.0  0.5460038824550144  0.3992216601554963  0.057499974857938806  1.0000
  H   H66       1.0  0.9539961173894805  0.10077834017885805  0.5574999750013847  1.0000
  H   H67       1.0  0.04600388250684944  0.10077834017885805  0.9425000254289531  1.0000
  H   H68       1.0  0.4539961174413155  0.3992216601554963  0.4425000252855071  1.0000
  H   H69       1.0  0.4539961174413155  0.6007783405132123  0.9425000254289531  1.0000
  H   H70       1.0  0.04600388250684944  0.8992216604898506  0.4425000252855071  1.0000
  H   H71       1.0  0.9539961173894805  0.8992216604898506  0.057499974857938806  1.0000
  H   H72       1.0  0.5460038824550144  0.6007783405132123  0.5574999750013847  1.0000
  H   H73       1.0  0.4967865898375392  0.5027167074662525  0.1389576434595013  1.0000
  H   H74       1.0  0.003213410110625767  0.9972832921901978  0.6389576436029473  1.0000
  H   H75       1.0  0.9967865897857042  0.9972832921901978  0.8610423559279069  1.0000
  H   H76       1.0  0.5032134100587907  0.5027167074662525  0.36104235668394463  1.0000
  H   H77       1.0  0.5032134100587907  0.49728329320245607  0.8610423559279069  1.0000
  H   H78       1.0  0.9967865897857042  0.002716707131898266  0.36104235668394463  1.0000
  H   H79       1.0  0.003213410110625767  0.002716707131898266  0.1389576434595013  1.0000
  H   H80       1.0  0.4967865898375392  0.49728329320245607  0.6389576436029473  1.0000
  C   C1        1.0  0.1461084873454653  0.3211154325962219  0.47014123227110305  1.0000
  C   C2        1.0  0.3538915126026997  0.17888456639151998  0.9701412324145489  1.0000
  C   C3        1.0  0.6461084872936302  0.17888456639151998  0.5298587680157888  1.0000
  C   C4        1.0  0.8538915125508646  0.3211154325962219  0.029858767872342852  1.0000
  C   C5        1.0  0.8538915125508646  0.6788845667258744  0.5298587680157888  1.0000
  C   C6        1.0  0.6461084872936302  0.8211154329305761  0.029858767872342852  1.0000
  C   C7        1.0  0.3538915126026997  0.8211154329305761  0.47014123227110305  1.0000
  C   C8        1.0  0.1461084873454653  0.6788845667258744  0.9701412324145489  1.0000
  C   C9        1.0  0.13150046770064697  0.3695553717351222  0.585574658445436  1.0000
  C   C10       1.0  0.368499532247518  0.13044462725261963  0.0855746592014737  1.0000
  C   C11       1.0  0.631500467648812  0.13044462725261963  0.4144253409419722  1.0000
  C   C12       1.0  0.868499532195683  0.3695553717351222  0.9144253410854181  1.0000
  C   C13       1.0  0.868499532195683  0.630444627586974  0.4144253409419722  1.0000
  C   C14       1.0  0.631500467648812  0.8695553720694766  0.9144253410854181  1.0000
  C   C15       1.0  0.368499532247518  0.8695553720694766  0.585574658445436  1.0000
  C   C16       1.0  0.13150046770064697  0.630444627586974  0.0855746592014737  1.0000
  C   C17       1.0  0.1779228001339132  0.4037588688205761  0.658525003562079  1.0000
  C   C18       1.0  0.32207719981425176  0.09624113151377818  0.15852500341863313  1.0000
  C   C19       1.0  0.6779228004935403  0.09624113151377818  0.3414749967248128  1.0000
  C   C20       1.0  0.8220771997624167  0.4037588688205761  0.8414749968682587  1.0000
  C   C21       1.0  0.8220771997624167  0.5962411318481324  0.3414749967248128  1.0000
  C   C22       1.0  0.6779228004935403  0.9037588691549305  0.8414749968682587  1.0000
  C   C23       1.0  0.32207719981425176  0.9037588691549305  0.658525003562079  1.0000
  C   C24       1.0  0.1779228001339132  0.5962411318481324  0.15852500341863313  1.0000
  C   C25       1.0  0.22765305592586133  0.3817542369815154  0.5981515067784614  1.0000
  C   C26       1.0  0.27234694402230364  0.11824576200622648  0.09815150663501553  1.0000
  C   C27       1.0  0.7276530558740263  0.11824576200622648  0.4018484935084303  1.0000
  C   C28       1.0  0.7723469443819306  0.3817542369815154  0.9018484927523925  1.0000
  C   C29       1.0  0.7723469443819306  0.6182457623405808  0.4018484935084303  1.0000
  C   C30       1.0  0.7276530558740263  0.8817542373158697  0.9018484927523925  1.0000
  C   C31       1.0  0.27234694402230364  0.8817542373158697  0.5981515067784614  1.0000
  C   C32       1.0  0.22765305592586133  0.6182457623405808  0.09815150663501553  1.0000
  C   C33       1.0  0.28155143479174466  0.4088082224800056  0.6463533393290234  1.0000
  C   C34       1.0  0.21844856515642033  0.09119177785434869  0.14635333918557747  1.0000
  C   C35       1.0  0.7815514347399096  0.09119177785434869  0.35364666095786845  1.0000
  C   C36       1.0  0.7184485651045853  0.4088082224800056  0.8536466602018308  1.0000
  C   C37       1.0  0.7184485651045853  0.5911917781887029  0.35364666095786845  1.0000
  C   C38       1.0  0.7815514347399096  0.90880822281436  0.8536466602018308  1.0000
  C   C39       1.0  0.21844856515642033  0.90880822281436  0.6463533393290234  1.0000
  C   C40       1.0  0.28155143479174466  0.5911917781887029  0.14635333918557747  1.0000
  C   C41       1.0  0.3301444592197713  0.3821015081336943  0.5890529769815043  1.0000
  C   C42       1.0  0.16985554072839362  0.11789849220066  0.08905297683805839  1.0000
  C   C43       1.0  0.8301444591679362  0.11789849220066  0.4109470233053875  1.0000
  C   C44       1.0  0.6698555410880206  0.3821015081336943  0.9109470234488335  1.0000
  C   C45       1.0  0.6698555410880206  0.6178984925350143  0.4109470233053875  1.0000
  C   C46       1.0  0.8301444591679362  0.8821015071214362  0.9109470234488335  1.0000
  C   C47       1.0  0.16985554072839362  0.8821015071214362  0.5890529769815043  1.0000
  C   C48       1.0  0.3301444592197713  0.6178984925350143  0.08905297683805839  1.0000
  C   C49       1.0  0.38261330406994204  0.41757003450233776  0.6480200204538686  1.0000
  C   C50       1.0  0.11738669587822285  0.0824299644854041  0.14802002120990634  1.0000
  C   C51       1.0  0.882613304018107  0.0824299644854041  0.35197997893353955  1.0000
  C   C52       1.0  0.6173866958263878  0.41757003450233776  0.8519799790769855  1.0000
  C   C53       1.0  0.6173866958263878  0.5824299648197584  0.35197997893353955  1.0000
  C   C54       1.0  0.882613304018107  0.9175700348366921  0.8519799790769855  1.0000
  C   C55       1.0  0.11738669587822285  0.9175700348366921  0.6480200204538686  1.0000
  C   C56       1.0  0.38261330406994204  0.5824299648197584  0.14802002120990634  1.0000
  C   C57       1.0  0.5154193869902262  0.9235068087952015  0.19709992069726337  1.0000
  C   C58       1.0  0.9845806128542687  0.5764931922078614  0.6970999208407093  1.0000
  C   C59       1.0  0.015419387042061247  0.5764931922078614  0.8029000795896284  1.0000
  C   C60       1.0  0.48458061290610366  0.9235068087952015  0.3029000794461825  1.0000
  C   C61       1.0  0.48458061290610366  0.07649319187350713  0.8029000795896284  1.0000
  C   C62       1.0  0.015419387042061247  0.4235068084608472  0.3029000794461825  1.0000
  C   C63       1.0  0.9845806128542687  0.4235068084608472  0.19709992069726337  1.0000
  C   C64       1.0  0.5154193869902262  0.07649319187350713  0.6970999208407093  1.0000
  C   C65       1.0  0.5302728379970325  0.08613535447954632  0.14339024757828023  1.0000
  C   C66       1.0  0.9697271618474623  0.413864645854808  0.6433902477217261  1.0000
  C   C67       1.0  0.03027283804886757  0.413864645854808  0.8566097527086116  1.0000
  C   C68       1.0  0.4697271618992974  0.08613535447954632  0.3566097525651657  1.0000
  C   C69       1.0  0.4697271618992974  0.9138646461891623  0.8566097527086116  1.0000
  C   C70       1.0  0.03027283804886757  0.5861353534672882  0.3566097525651657  1.0000
  C   C71       1.0  0.9697271618474623  0.5861353534672882  0.14339024757828023  1.0000
  C   C72       1.0  0.5302728379970325  0.9138646461891623  0.6433902477217261  1.0000
  C   C73       1.0  0.514824362644205  0.24975450935065002  0.19548453262712137  1.0000
  C   C74       1.0  0.98517563720029  0.2502454909837043  0.6954845327705672  1.0000
  C   C75       1.0  0.01482436269604003  0.2502454909837043  0.8045154667602867  1.0000
  C   C76       1.0  0.4851756372521249  0.24975450935065002  0.3045154675163245  1.0000
  C   C77       1.0  0.4851756372521249  0.7502454913180586  0.8045154667602867  1.0000
  C   C78       1.0  0.01482436269604003  0.7497545096850043  0.3045154675163245  1.0000
  C   C79       1.0  0.98517563720029  0.7497545096850043  0.19548453262712137  1.0000
  C   C80       1.0  0.514824362644205  0.7502454913180586  0.6954845327705672  1.0000
  N   N1        1.0  0.530202494853666  0.4166887857281253  0.14307574762016168  1.0000
  N   N2        1.0  0.9697975049908288  0.08331121460622906  0.6430757477636075  1.0000
  N   N3        1.0  0.030202494905501073  0.08331121460622906  0.8569242526667302  1.0000
  N   N4        1.0  0.4697975050426639  0.4166887857281253  0.3569242525232842  1.0000
  N   N5        1.0  0.4697975050426639  0.5833112149405835  0.8569242526667302  1.0000
  N   N6        1.0  0.030202494905501073  0.9166887860624795  0.3569242525232842  1.0000
  N   N7        1.0  0.9697975049908288  0.9166887860624795  0.14307574762016168  1.0000
  N   N8        1.0  0.530202494853666  0.5833112149405835  0.6430757477636075  1.0000
  O   O1        1.0  0.42780195719659575  0.39805880509210073  0.5950376509189079  1.0000
  O   O2        1.0  0.07219804316303127  0.10194119524225359  0.09503765167494559  1.0000
  O   O3        1.0  0.9278019571447608  0.10194119524225359  0.4049623484685003  1.0000
  O   O4        1.0  0.5721980431111963  0.39805880509210073  0.9049623486119461  1.0000
  O   O5        1.0  0.5721980431111963  0.6019411955766079  0.4049623484685003  1.0000
  O   O6        1.0  0.9278019571447608  0.898058805426455  0.9049623486119461  1.0000
  O   O7        1.0  0.07219804316303127  0.898058805426455  0.5950376509189079  1.0000
  O   O8        1.0  0.42780195719659575  0.6019411955766079  0.09503765167494559  1.0000
  O   O9        1.0  0.37956629539079734  0.4705371352308138  0.761643449875142  1.0000
  O   O10       1.0  0.12043370455736763  0.02946286510354053  0.2616434497316961  1.0000
  O   O11       1.0  0.8795662953389622  0.02946286510354053  0.23835655041174983  1.0000
  O   O12       1.0  0.6204337045055326  0.4705371352308138  0.7383565505551957  1.0000
  O   O13       1.0  0.6204337045055326  0.5294628654378949  0.23835655041174983  1.0000
  O   O14       1.0  0.8795662953389622  0.9705371355651682  0.7383565505551957  1.0000
  O   O15       1.0  0.12043370455736763  0.9705371355651682  0.761643449875142  1.0000
  O   O16       1.0  0.37956629539079734  0.5294628654378949  0.2616434497316961  1.0000
  S   S1        1.0  0.21587797359103328  0.3169877395506888  0.4502881333433158  1.0000
  S   S2        1.0  0.2841220263571317  0.1830122607836655  0.9502881334867618  1.0000
  S   S3        1.0  0.7158779735391982  0.1830122607836655  0.549711866943576  1.0000
  S   S4        1.0  0.7841220263052966  0.3169877395506888  0.04971186680013009  1.0000
  S   S5        1.0  0.7841220263052966  0.6830122611180198  0.549711866943576  1.0000
  S   S6        1.0  0.7158779735391982  0.8169877398850431  0.04971186680013009  1.0000
  S   S7        1.0  0.2841220263571317  0.8169877398850431  0.4502881333433158  1.0000
  S   S8        1.0  0.21587797359103328  0.6830122611180198  0.9502881334867618  1.0000
