data_image0
_chemical_formula_structural       C26F6PS24Cl2
_chemical_formula_sum              "C26 F6 P1 S24 Cl2"
_cell_length_a       16.166968960349326
_cell_length_b       9.824930543269808
_cell_length_c       7.558838759161493
_cell_angle_alpha    111.76399548351972
_cell_angle_beta     105.60091003431982
_cell_angle_gamma    97.84897348642964

_space_group_name_H-M_alt    "P 1"
_space_group_IT_number       1

loop_
  _space_group_symop_operation_xyz
  'x, y, z'

loop_
  _atom_site_type_symbol
  _atom_site_label
  _atom_site_symmetry_multiplicity
  _atom_site_fract_x
  _atom_site_fract_y
  _atom_site_fract_z
  _atom_site_occupancy
  C   C1        1.0  0.0020575731143875065  0.42665715917997776  0.7334507115832472  1.0000
  C   C2        1.0  0.9979424266886665  0.5733428403306349  0.2665492877577276  1.0000
  C   C3        1.0  0.920164196372009  0.3618239485011948  0.7297589489612439  1.0000
  C   C4        1.0  0.07983580363224094  0.6381760515134318  0.2702410518965852  1.0000
  C   C5        1.0  0.138877309049908  0.6057166373378492  0.7494766133378272  1.0000
  C   C6        1.0  0.861122690845226  0.39428336319113694  0.2505233859757848  1.0000
  C   C7        1.0  0.15820530376874117  0.4677040860702984  0.7105977595857162  1.0000
  C   C8        1.0  0.8417946961263928  0.5322959144586876  0.28940223972789564  1.0000
  C   C9        1.0  0.7601727661094857  0.30794448416323295  0.7313227324428112  1.0000
  C   C10       1.0  0.23982723369356831  0.6920555153473796  0.2686772668981636  1.0000
  C   C11       1.0  0.7822671081742524  0.17212158575630776  0.6925684471069711  1.0000
  C   C12       1.0  0.2177328916288016  0.8278784137543048  0.3074315522340037  1.0000
  C   C13       1.0  0.2959377567948998  0.6419070845949094  0.7083963593755531  1.0000
  C   C14       1.0  0.70406224330143  0.35809291643809066  0.2916036414549131  1.0000
  C   C15       1.0  0.615492363285872  0.11455053405626117  0.6730653774905124  1.0000
  C   C16       1.0  0.38450763671837784  0.8854494659583655  0.32693462336731655  1.0000
  C   C17       1.0  0.04125050151922029  0.024462162542936105  0.9993588692976503  1.0000
  C   C18       1.0  0.9587494984850297  0.9755378374716904  0.0006411315601789453  1.0000
  C   C19       1.0  0.17210192636238636  0.09351669695887507  0.888246131880284  1.0000
  C   C20       1.0  0.8278980743619591  0.906483304081573  0.11175386902769073  1.0000
  C   C21       1.0  0.20082642332617548  0.18009265692010315  0.09338680164398659  1.0000
  C   C22       1.0  0.799173577196974  0.8199073436163308  0.9066131977471337  1.0000
  C   C23       1.0  0.32587913048136624  0.2804944568361516  0.9761621789969128  1.0000
  C   C24       1.0  0.6741208694137677  0.7195055436928345  0.023837820316699076  1.0000
  C   C25       1.0  0.48948175858128046  0.473654377885916  0.5543602544218921  1.0000
  C   C26       1.0  0.5105182415150493  0.526345623147084  0.445639746408574  1.0000
  F   F1        1.0  0.48814634163491466  0.8377733127850219  0.01665652418800729  1.0000
  F   F2        1.0  0.5118536581681393  0.1622266867255909  0.9833434751529676  1.0000
  F   F3        1.0  0.3988283363658673  0.005265615836072038  0.008526603661834362  1.0000
  F   F4        1.0  0.6011716636383826  0.9947343841785548  0.9914733971959946  1.0000
  F   F5        1.0  0.54245145167889  0.09020409691468799  0.24725634500475066  1.0000
  F   F6        1.0  0.45754854832535985  0.9097959030999386  0.7527436558530785  1.0000
  P   P1        1.0  0.500000000292049  1.0194905046486309e-10  5.621213278244863e-10  1.0000
  S   S1        1.0  0.03593983960189267  0.6167773420833319  0.7751099391522053  1.0000
  S   S2        1.0  0.9640601604023572  0.3832226579312948  0.22489006170562367  1.0000
  S   S3        1.0  0.08099027219612481  0.323351826119447  0.7028144906208059  1.0000
  S   S4        1.0  0.9190097278081251  0.6766481738951796  0.2971855102370233  1.0000
  S   S5        1.0  0.8412295646252492  0.46276182477197797  0.7721820132637764  1.0000
  S   S6        1.0  0.15877043580582023  0.5372381747460827  0.22781798615470678  1.0000
  S   S7        1.0  0.8896853268315651  0.17209548240438463  0.6921023085261512  1.0000
  S   S8        1.0  0.11031467326476471  0.8279045186286155  0.3078976923043151  1.0000
  S   S9        1.0  0.22503528700502523  0.7444853066476842  0.7635295218544579  1.0000
  S   S10       1.0  0.7749647129992246  0.2555146933669426  0.23647047900337112  1.0000
  S   S11       1.0  0.2613373816824878  0.46491471301488524  0.6784669307892968  1.0000
  S   S12       1.0  0.738662618120566  0.5350852864957273  0.321533068551678  1.0000
  S   S13       1.0  0.650024895819398  0.2964955996388141  0.7258999622026721  1.0000
  S   S14       1.0  0.34997510427693174  0.7035044013941859  0.27410003862779414  1.0000
  S   S15       1.0  0.6936376901516074  0.023291202781005476  0.6488672638003375  1.0000
  S   S16       1.0  0.3063623097435265  0.9767087977479806  0.3511327355132744  1.0000
  S   S17       1.0  0.06765367980598157  0.9638114359961351  0.7744768279229118  1.0000
  S   S18       1.0  0.9323463199970724  0.03618856351447755  0.22552317141806297  1.0000
  S   S19       1.0  0.1303545185414944  0.15217762021603176  0.22226178937856758  1.0000
  S   S20       1.0  0.8696454812615596  0.8478223792945809  0.7777382099624072  1.0000
  S   S21       1.0  0.24637901796357578  0.13931605571551112  0.7754752731063886  1.0000
  S   S22       1.0  0.753620982040674  0.8606839442991155  0.22452472775144047  1.0000
  S   S23       1.0  0.3039916991290047  0.3132864642917129  0.18935795403959838  1.0000
  S   S24       1.0  0.696008300875245  0.6867135357229137  0.8106420468182306  1.0000
  Cl  Cl1       1.0  0.45920122319499684  0.3978688563043896  0.6923678708973339  1.0000
  Cl  Cl2       1.0  0.5407987767001371  0.6021311442245965  0.3076321284162781  1.0000
