data_image0
_chemical_formula_structural       H80C48N20O8S8
_chemical_formula_sum              "H80 C48 N20 O8 S8"
_cell_length_a       11.524098628748517
_cell_length_b       13.980666295179036
_cell_length_c       11.127641411611677
_cell_angle_alpha    90.0
_cell_angle_beta     116.72618852504976
_cell_angle_gamma    90.0

_space_group_name_H-M_alt    "P 1"
_space_group_IT_number       1

loop_
  _space_group_symop_operation_xyz
  'x, y, z'

loop_
  _atom_site_type_symbol
  _atom_site_label
  _atom_site_symmetry_multiplicity
  _atom_site_fract_x
  _atom_site_fract_y
  _atom_site_fract_z
  _atom_site_occupancy
  H   H1        1.0  0.5901855951706724  0.7130545075264124  0.7328838753147685  1.0000
  H   H2        1.0  0.4098144051360619  0.213054507353997  0.7671161244013847  1.0000
  H   H3        1.0  0.40981440441172995  0.2869454928184184  0.2671161238084623  1.0000
  H   H4        1.0  0.5901855954118898  0.7869454929908338  0.23288387607572172  1.0000
  H   H5        1.0  0.49499819958198876  0.809090028413066  0.5200130362223684  1.0000
  H   H6        1.0  0.5050018007247455  0.30909002824065057  0.9799869634937849  1.0000
  H   H7        1.0  0.5050018009659629  0.19090997193176482  0.4799869642547381  1.0000
  H   H8        1.0  0.4949981988576567  0.6909099713889066  0.020013035629445928  1.0000
  H   H9        1.0  0.2570514767681469  0.8003242151526307  0.36725081930932957  1.0000
  H   H10       1.0  0.7429485230554729  0.3003242156954889  0.13274918057485446  1.0000
  H   H11       1.0  0.7429485228082827  0.19967578447692652  0.6327491807097655  1.0000
  H   H12       1.0  0.2570514765209568  0.6996757846493419  0.8672508194442407  1.0000
  H   H13       1.0  0.11617284792442603  0.6900662977219322  0.4212683410702844  1.0000
  H   H14       1.0  0.8838271518991935  0.19006629826479035  0.07873165881389954  1.0000
  H   H15       1.0  0.8838271526235256  0.30993370190762504  0.5787316594068219  1.0000
  H   H16       1.0  0.1161728476772359  0.8099337020800405  0.9212683412051955  1.0000
  H   H17       1.0  0.39581112522822015  0.43725026410994217  0.9870284898882167  1.0000
  H   H18       1.0  0.6041888741010192  0.9372502642823576  0.5129715102657894  1.0000
  H   H19       1.0  0.6041888743482094  0.5627497355196152  0.012971510130878319  1.0000
  H   H20       1.0  0.39581112547541025  0.06274973606247324  0.4870284897533057  1.0000
  H   H21       1.0  0.2235541728054478  0.4040292072451376  0.8397849947372185  1.0000
  H   H22       1.0  0.7764458274953138  0.904029207417553  0.6602150058747991  1.0000
  H   H23       1.0  0.7764458277425038  0.5959707923844197  0.1602150057398879  1.0000
  H   H24       1.0  0.22355417305263786  0.09597079292727785  0.33978499460230727  1.0000
  H   H25       1.0  0.044242294396078914  0.44494755032849015  0.5724703605461985  1.0000
  H   H26       1.0  0.9557577059046827  0.9449475505009056  0.9275296400658191  1.0000
  H   H27       1.0  0.9557577061518728  0.5550524493010671  0.427529639930908  1.0000
  H   H28       1.0  0.04424229464326903  0.05505244984392524  0.07247036041128732  1.0000
  H   H29       1.0  0.987334034357604  0.453770550419876  0.6850439619509376  1.0000
  H   H30       1.0  0.012665964977608114  0.9537705498770179  0.8149560373072042  1.0000
  H   H31       1.0  0.012665965218825561  0.5462294499249548  0.3149560380681575  1.0000
  H   H32       1.0  0.9873340346047941  0.04622944975253937  0.1850439618160265  1.0000
  H   H33       1.0  0.3966275022212584  0.1331014224008535  0.045317397092128515  1.0000
  H   H34       1.0  0.6033724976023612  0.6331014225732688  0.45468260279205547  1.0000
  H   H35       1.0  0.6033724973551712  0.8668985772287039  0.9546826029269665  1.0000
  H   H36       1.0  0.3966275029455904  0.3668985770562884  0.5453173976850509  1.0000
  H   H37       1.0  0.2515562376666464  0.06087275756617303  0.9760191332887677  1.0000
  H   H38       1.0  0.7484437626400877  0.5608727577385885  0.5239808664273855  1.0000
  H   H39       1.0  0.748443762887278  0.9391272420633843  0.023980866292474465  1.0000
  H   H40       1.0  0.25155623693634177  0.43912724260624236  0.4760191335917095  1.0000
  H   H41       1.0  0.2754677751236241  0.14918076263069058  0.1044066103978132  1.0000
  H   H42       1.0  0.7245322246999957  0.6491807628031059  0.3955933894863708  1.0000
  H   H43       1.0  0.7245322244528055  0.8508192369988667  0.8955933896212819  1.0000
  H   H44       1.0  0.27546777488240665  0.35081923682645133  0.60440660963686  1.0000
  H   H45       1.0  0.9936560377756618  0.2607341612364348  0.800514623681848  1.0000
  H   H46       1.0  0.0063439625310724775  0.7607341606935767  0.6994853760343052  1.0000
  H   H47       1.0  0.006343962772289926  0.7392658391083959  0.1994853767952584  1.0000
  H   H48       1.0  0.993656038022852  0.2392658389359806  0.30051462354693687  1.0000
  H   H49       1.0  0.051770100143100156  0.20863940662154587  0.9659182874648347  1.0000
  H   H50       1.0  0.948229900163634  0.7086394060786878  0.5340817122513186  1.0000
  H   H51       1.0  0.9482299004048514  0.7913605937232849  0.03408171301227176  1.0000
  H   H52       1.0  0.05177009941876817  0.2913605935508695  0.4659182868719123  1.0000
  H   H53       1.0  0.017061836288125177  0.13356356704142958  0.8216149674849016  1.0000
  H   H54       1.0  0.9829381630470869  0.633563567213845  0.6783850317732402  1.0000
  H   H55       1.0  0.982938163294277  0.8664364325881277  0.17838503163832917  1.0000
  H   H56       1.0  0.017061836529342626  0.3664364331309858  0.3216149682458548  1.0000
  H   H57       1.0  0.37834540611873296  0.5773565329131284  0.4029093232700879  1.0000
  H   H58       1.0  0.6216545937048866  0.07735653274071301  0.09709067661409604  1.0000
  H   H59       1.0  0.6216545944292187  0.4226434674317024  0.5970906772070185  1.0000
  H   H60       1.0  0.37834540587154286  0.9226434676041178  0.902909323404999  1.0000
  H   H61       1.0  0.4071322021874396  0.6063932098088487  0.2614705662276963  1.0000
  H   H62       1.0  0.5928677976302074  0.10639320963643326  0.23852943455235193  1.0000
  H   H63       1.0  0.592867798360512  0.39360679053598213  0.7385294342494101  1.0000
  H   H64       1.0  0.4071322019462222  0.8936067907083975  0.7614705654667431  1.0000
  H   H65       1.0  0.38730238634631126  0.48251456172201074  0.29596124559851367  1.0000
  H   H66       1.0  0.6126976134773084  0.9825145611791526  0.20403875428567034  1.0000
  H   H67       1.0  0.612697614207613  0.51748543862282  0.7040387539827284  1.0000
  H   H68       1.0  0.38730238609912115  0.01748543845040466  0.7959612457334247  1.0000
  H   H69       1.0  0.08037051997074417  0.5345679256057441  0.9628266919422823  1.0000
  H   H70       1.0  0.9196294803300175  0.03456792543332865  0.5371733086697351  1.0000
  H   H71       1.0  0.9196294805772075  0.46543207473908677  0.037173308534824014  1.0000
  H   H72       1.0  0.0803705192464122  0.9654320741962287  0.46282669134935994  1.0000
  H   H73       1.0  0.20917305830809801  0.45071745201249047  0.054857018354452405  1.0000
  H   H74       1.0  0.7908269415155217  0.9507174521849059  0.44514298152973153  1.0000
  H   H75       1.0  0.7908269412743042  0.5492825483323404  0.9451429807687783  1.0000
  H   H76       1.0  0.20917305903242997  0.04928254815992492  0.5548570189473748  1.0000
  H   H77       1.0  0.24570000710205697  0.5708863219739551  0.020759757680239906  1.0000
  H   H78       1.0  0.7542999927215628  0.07088632251681312  0.4792402422039441  1.0000
  H   H79       1.0  0.7542999924743726  0.42911367765560227  0.9792402423388553  1.0000
  H   H80       1.0  0.2457000068608395  0.9291136778280177  0.5207597569192868  1.0000
  C   C1        1.0  0.38472410548737684  0.5368167719293875  0.8353497022338024  1.0000
  C   C2        1.0  0.6152758948193573  0.03681677175697216  0.6646502974823508  1.0000
  C   C3        1.0  0.6152758950605748  0.46318322841544324  0.164650298243304  1.0000
  C   C4        1.0  0.38472410475707225  0.9631832285878585  0.3353497025367443  1.0000
  C   C5        1.0  0.40825381338457606  0.6470042978652015  0.6942411923045381  1.0000
  C   C6        1.0  0.5917461859446634  0.14700429769278608  0.8057588078494682  1.0000
  C   C7        1.0  0.5917461861918535  0.3529957017643558  0.305758807714557  1.0000
  C   C8        1.0  0.40825381363176616  0.8529957019367712  0.19424119216962696  1.0000
  C   C9        1.0  0.4869440351160789  0.7092520571368819  0.6629124362659502  1.0000
  C   C10       1.0  0.5130559651906553  0.20925205767973998  0.837087563450203  1.0000
  C   C11       1.0  0.5130559644603506  0.29074794249267544  0.3370875637531449  1.0000
  C   C12       1.0  0.486944035363269  0.7907479426650909  0.16291243613103906  1.0000
  C   C13       1.0  0.43310578640749703  0.7633914954168016  0.5457403504211469  1.0000
  C   C14       1.0  0.5668942138992371  0.2633914959596597  0.9542596492950063  1.0000
  C   C15       1.0  0.5668942141464273  0.23660850421275564  0.4542596491600951  1.0000
  C   C16       1.0  0.4331057856771924  0.7366085043851711  0.045740350724088844  1.0000
  C   C17       1.0  0.2991079724193175  0.7576349228543229  0.4590046249656255  1.0000
  C   C18       1.0  0.7008920274043021  0.2576349233971809  0.040995374918558446  1.0000
  C   C19       1.0  0.7008920281286342  0.24236507677523447  0.5409953755114808  1.0000
  C   C20       1.0  0.2991079721781001  0.7423650769476499  0.9590046242046723  1.0000
  C   C21       1.0  0.21996438426426504  0.6964685233462478  0.4876653944882144  1.0000
  C   C22       1.0  0.7800356165308767  0.19646852317383243  0.01233460585398086  1.0000
  C   C23       1.0  0.7800356162836866  0.303531476998583  0.512334605988892  1.0000
  C   C24       1.0  0.2199643840170749  0.8035314764557249  0.9876653946231254  1.0000
  C   C25       1.0  0.2731374418542192  0.6383946538426196  0.6035929555939766  1.0000
  C   C26       1.0  0.7268625574750204  0.13839465367020423  0.8964070445600296  1.0000
  C   C27       1.0  0.7268625577222104  0.36160534650221116  0.3964070444251184  1.0000
  C   C28       1.0  0.2731374421014093  0.8616053459593531  0.10359295545906555  1.0000
  C   C29       1.0  0.24899339559646186  0.5217997759173737  0.7377570149229777  1.0000
  C   C30       1.0  0.7510066037387503  0.021799776460231794  0.7622429843351642  1.0000
  C   C31       1.0  0.7510066039799678  0.4782002237121836  0.2622429850961173  1.0000
  C   C32       1.0  0.24899339583767932  0.978200223884599  0.23775701568393093  1.0000
  C   C33       1.0  0.2926821291925354  0.13090448275924346  0.01782904558709897  1.0000
  C   C34       1.0  0.7073178706310843  0.6309044822163853  0.48217095429708495  1.0000
  C   C35       1.0  0.7073178703838942  0.8690955175855873  0.9821709544319961  1.0000
  C   C36       1.0  0.2926821289513179  0.369095517413172  0.5178290448261458  1.0000
  C   C37       1.0  0.0524753789515781  0.2036182961452729  0.8678452364392509  1.0000
  C   C38       1.0  0.9475246213551561  0.7036182963176882  0.6321547632769022  1.0000
  C   C39       1.0  0.9475246206248514  0.7963817034842844  0.13215476357984413  1.0000
  C   C40       1.0  0.052475379198768206  0.29638170331186897  0.36784523630433985  1.0000
  C   C41       1.0  0.35810338622975535  0.5566607288726748  0.3002665533410681  1.0000
  C   C42       1.0  0.6418966135938644  0.05666072870025939  0.19973344654311584  1.0000
  C   C43       1.0  0.6418966133466741  0.4433392707568825  0.699733446678027  1.0000
  C   C44       1.0  0.35810338598256525  0.9433392709292978  0.8002665534759792  1.0000
  C   C45       1.0  0.17967263266568032  0.5262131599934443  0.043326887507859395  1.0000
  C   C46       1.0  0.8203273681294615  0.026213159821028894  0.45667311283433587  1.0000
  C   C47       1.0  0.8203273678822713  0.473786839636113  0.956673112969247  1.0000
  C   C48       1.0  0.1796726324184902  0.9737868398085284  0.5433268876427706  1.0000
  N   N1        1.0  0.46163488433137967  0.594890438295344  0.8111945115696164  1.0000
  N   N2        1.0  0.538365115969382  0.09489043812292863  0.688805489042401  1.0000
  N   N3        1.0  0.5383651152450499  0.4051095613342133  0.18880548844947867  1.0000
  N   N4        1.0  0.46163488457856977  0.9051095615066287  0.3111945114347053  1.0000
  N   N5        1.0  0.19573238713819346  0.5733087465769711  0.6261321737935319  1.0000
  N   N6        1.0  0.8042676131685408  0.07330874640455574  0.8738678259226212  1.0000
  N   N7        1.0  0.8042676124382362  0.42669125305258615  0.37386782622556314  1.0000
  N   N8        1.0  0.19573238738538362  0.9266912532250016  0.12613217365862084  1.0000
  N   N9        1.0  0.43493522259829953  0.4930804537103588  0.9577722820359261  1.0000
  N   N10       1.0  0.5650647767369126  0.9930804531675007  0.5422277172222156  1.0000
  N   N11       1.0  0.5650647769781301  0.506919546634472  0.04222771798316881  1.0000
  N   N12       1.0  0.43493522284548963  0.0069195464620565965  0.45777228190101515  1.0000
  N   N13       1.0  0.18054758862846662  0.45274828440635073  0.7620532726097734  1.0000
  N   N14       1.0  0.8194524107007729  0.9527482845787661  0.7379467275442327  1.0000
  N   N15       1.0  0.8194524109479628  0.5472517152232066  0.23794672740932152  1.0000
  N   N16       1.0  0.18054758887565675  0.047251715766064656  0.26205327247486243  1.0000
  N   N17       1.0  0.05796308470311874  0.42181702541842125  0.6652322135018348  1.0000
  N   N18       1.0  0.9420369146320935  0.9218170255908366  0.834767785756307  1.0000
  N   N19       1.0  0.9420369148792836  0.5781829742111361  0.3347677856213959  1.0000
  N   N20       1.0  0.0579630849443362  0.07818297475399419  0.16523221426278806  1.0000
  O   O1        1.0  0.2625858248483102  0.31514098806000995  0.958094184773978  1.0000
  O   O2        1.0  0.737414175458424  0.8151409875171519  0.5419058149421752  1.0000
  O   O3        1.0  0.7374141757056142  0.6848590122848208  0.0419058148072641  1.0000
  O   O4        1.0  0.2625858250895277  0.18485901211240546  0.45809418553493114  1.0000
  O   O5        1.0  0.12043121526625465  0.494234734175916  0.2451018441697017  1.0000
  O   O6        1.0  0.8795687845573651  0.9942347336330579  0.2548981557144822  1.0000
  O   O7        1.0  0.879568784310175  0.5057652661689147  0.7548981558493932  1.0000
  O   O8        1.0  0.12043121501906452  0.005765265996499332  0.7451018443046128  1.0000
  S   S1        1.0  0.2154075053978556  0.21880464173977526  0.8882288707059206  1.0000
  S   S2        1.0  0.7845924939313839  0.7188046419121906  0.6117711294480856  1.0000
  S   S3        1.0  0.784592494178574  0.7811953586050555  0.11177112931317447  1.0000
  S   S4        1.0  0.2154075056450457  0.28119535843264015  0.3882288705710096  1.0000
  S   S5        1.0  0.18539100895928468  0.5698307885903217  0.19764783811727799  1.0000
  S   S6        1.0  0.8146089908643349  0.06983078841790621  0.30235216176690594  1.0000
  S   S7        1.0  0.8146089906171448  0.4301692117545092  0.802352161901817  1.0000
  S   S8        1.0  0.18539100968361666  0.9301692112116512  0.6976478387102004  1.0000
