data_image0
_chemical_formula_structural       H120C52P8S8I8
_chemical_formula_sum              "H120 C52 P8 S8 I8"
_cell_length_a       12.378433420280322
_cell_length_b       12.188425724577721
_cell_length_c       15.48793962123992
_cell_angle_alpha    90.0
_cell_angle_beta     112.66664302735917
_cell_angle_gamma    90.0

_space_group_name_H-M_alt    "P 1"
_space_group_IT_number       1

loop_
  _space_group_symop_operation_xyz
  'x, y, z'

loop_
  _atom_site_type_symbol
  _atom_site_label
  _atom_site_symmetry_multiplicity
  _atom_site_fract_x
  _atom_site_fract_y
  _atom_site_fract_z
  _atom_site_occupancy
  H   H1        1.0  0.3594520322068809  0.8496998779027148  0.7516831196985249  1.0000
  H   H2        1.0  0.6405479683430045  0.3496998780905047  0.7483168802573373  1.0000
  H   H3        1.0  0.6405479683454216  0.15030012172170565  0.2483168803926522  1.0000
  H   H4        1.0  0.3594520322092979  0.6503001223543665  0.2516831198338397  1.0000
  H   H5        1.0  0.42366148685376687  0.908582545461069  0.6792113582712077  1.0000
  H   H6        1.0  0.5763385128889226  0.40858254564885865  0.8207886416860215  1.0000
  H   H7        1.0  0.5763385128913396  0.09141745416335166  0.3207886418213364  1.0000
  H   H8        1.0  0.42366148651722485  0.5914174539755619  0.17921135770681668  1.0000
  H   H9        1.0  0.1644088881324408  0.8337987053986085  0.4516720220825328  1.0000
  H   H10       1.0  0.8355911116150826  0.3337987055863981  0.048327978145326037  1.0000
  H   H11       1.0  0.8355911116126656  0.1662012942258122  0.5483279780100112  1.0000
  H   H12       1.0  0.1644088881300238  0.6662012948584729  0.951672021947218  1.0000
  H   H13       1.0  0.30060559964272826  0.9507084460164328  0.413285202607486  1.0000
  H   H14       1.0  0.6993944009119912  0.4507084462042225  0.08671479761900584  1.0000
  H   H15       1.0  0.6993944009095742  0.04929155442843827  0.586714797483691  1.0000
  H   H16       1.0  0.3006055988331153  0.5492915542406486  0.9132852024735383  1.0000
  H   H17       1.0  0.36969534445023694  0.8230905809082718  0.4548690157599904  1.0000
  H   H18       1.0  0.6303046561044825  0.3230905810960614  0.04513098446650153  1.0000
  H   H19       1.0  0.6303046561020654  0.17690941871614885  0.5451309843311867  1.0000
  H   H20       1.0  0.36969534444781993  0.6769094193488095  0.9548690156246755  1.0000
  H   H21       1.0  0.40818253154158224  0.9416542217471354  0.5283308822292867  1.0000
  H   H22       1.0  0.591817469008303  0.44165422193492515  0.9716691177265754  1.0000
  H   H23       1.0  0.5918174690107201  0.05834577787728514  0.4716691178618903  1.0000
  H   H24       1.0  0.40818253120504033  0.5583457785099459  0.028330881664895634  1.0000
  H   H25       1.0  0.264208328465588  0.013304216940257728  0.6030506449116796  1.0000
  H   H26       1.0  0.7357916716160605  0.5133042167524681  0.8969493557452556  1.0000
  H   H27       1.0  0.7357916720867143  0.9866957835046133  0.3969493551794974  1.0000
  H   H28       1.0  0.2642083281290461  0.4866957836924031  0.10305064434728854  1.0000
  H   H29       1.0  0.1193373765696927  0.9587266948213568  0.5626069677694985  1.0000
  H   H30       1.0  0.8806626239801928  0.45872669500914653  0.9373930321863638  1.0000
  H   H31       1.0  0.8806626236436508  0.0412733048030638  0.43739303162197274  1.0000
  H   H32       1.0  0.1193373765721097  0.541273304615274  0.06260696790481324  1.0000
  H   H33       1.0  0.16604213059282047  0.0362757857323956  0.48654658031261694  1.0000
  H   H34       1.0  0.8339578688157441  0.5362757863650564  0.013453419215536075  1.0000
  H   H35       1.0  0.833957869152286  0.963724213892025  0.5134534197799272  1.0000
  H   H36       1.0  0.16604213059040343  0.4637242140798147  0.9865465801773021  1.0000
  H   H37       1.0  0.15346055990601606  0.8261239808596244  0.6691810769766544  1.0000
  H   H38       1.0  0.8465394398366733  0.32612398104741414  0.8308189229805748  1.0000
  H   H39       1.0  0.8465394406462865  0.17387601876479614  0.33081892311452266  1.0000
  H   H40       1.0  0.1534605595694741  0.673876019397457  0.16918107641226326  1.0000
  H   H41       1.0  0.05066319730145286  0.6394401513465368  0.5269883766815932  1.0000
  H   H42       1.0  0.9493368024412365  0.13944015153432643  0.9730116232756361  1.0000
  H   H43       1.0  0.9493368024436536  0.3605598490983344  0.47301162341095093  1.0000
  H   H44       1.0  0.05066319730386985  0.8605598489105446  0.02698837681690797  1.0000
  H   H45       1.0  0.020172405121188817  0.7816779636100285  0.504568780679945  1.0000
  H   H46       1.0  0.9798275946215006  0.28167796379781823  0.9954312192772843  1.0000
  H   H47       1.0  0.9798275946239177  0.21832203601439204  0.49543121941259904  1.0000
  H   H48       1.0  0.020172405123605852  0.7183220366470529  0.00456878081525987  1.0000
  H   H49       1.0  0.9779212972737724  0.7137236839748958  0.5877173925457189  1.0000
  H   H50       1.0  0.02207870246891711  0.2137236841626855  0.9122826074115105  1.0000
  H   H51       1.0  0.02207870247133408  0.2862763164699753  0.4122826075468252  1.0000
  H   H52       1.0  0.9779212972761894  0.7862763162821856  0.08771739268103367  1.0000
  H   H53       1.0  0.12703968786585182  0.6571745901399018  0.7460939683365495  1.0000
  H   H54       1.0  0.8729603126840335  0.157174589507241  0.7539060316193127  1.0000
  H   H55       1.0  0.8729603126864507  0.34282541030496927  0.2539060317546275  1.0000
  H   H56       1.0  0.12703968786826883  0.8428254101171796  0.24609396847186435  1.0000
  H   H57       1.0  0.2794626282887044  0.6780872441413136  0.7750608006950553  1.0000
  H   H58       1.0  0.720537371453985  0.17808724432910322  0.7249391992621739  1.0000
  H   H59       1.0  0.7205373714564021  0.32191275630355753  0.22493919939748877  1.0000
  H   H60       1.0  0.27946262829112134  0.8219127561157679  0.2750608008303701  1.0000
  H   H61       1.0  0.2027797685717695  0.5780030415079777  0.6909105707378281  1.0000
  H   H62       1.0  0.7972202311709199  0.0780030416957674  0.8090894292194011  1.0000
  H   H63       1.0  0.797220231173337  0.4219969581164429  0.30908942935471595  1.0000
  H   H64       1.0  0.2027797685741865  0.9219969587491037  0.19091057087314298  1.0000
  H   H65       1.0  0.5429004779508643  0.7217748500743963  0.621299860369163  1.0000
  H   H66       1.0  0.45709952259902104  0.22177484944173548  0.8787001395866991  1.0000
  H   H67       1.0  0.4570995226014381  0.2782251503704748  0.378700139722014  1.0000
  H   H68       1.0  0.5429004776143224  0.7782251501826851  0.12129985980477198  1.0000
  H   H69       1.0  0.7341577855256324  0.8878719101662269  0.7320127691162336  1.0000
  H   H70       1.0  0.26584221502425304  0.3878719095335661  0.7679872308396286  1.0000
  H   H71       1.0  0.2658422150266701  0.11212809027864419  0.2679872309749435  1.0000
  H   H72       1.0  0.7341577855280494  0.6121280900908544  0.2320127692515484  1.0000
  H   H73       1.0  0.5915537663536763  0.925162570196544  0.6535614522890996  1.0000
  H   H74       1.0  0.4084462333890132  0.4251625703843338  0.8464385476681296  1.0000
  H   H75       1.0  0.4084462333914302  0.07483743024832702  0.34643854780344446  1.0000
  H   H76       1.0  0.5915537663560934  0.5748374300605373  0.15356145242441444  1.0000
  H   H77       1.0  0.6868458030010886  0.8541751383861101  0.6121483415423227  1.0000
  H   H78       1.0  0.31315419674160083  0.3541751385738998  0.8878516584149065  1.0000
  H   H79       1.0  0.31315419674401784  0.14582486123831048  0.3878516585502214  1.0000
  H   H80       1.0  0.6868458038107016  0.6458248610505207  0.11214834167627044  1.0000
  H   H81       1.0  0.744164510821795  0.6532076939145343  0.6601184687192547  1.0000
  H   H82       1.0  0.25583548892089447  0.153207694102324  0.8398815312379746  1.0000
  H   H83       1.0  0.25583548973050746  0.3467923065303368  0.3398815313719223  1.0000
  H   H84       1.0  0.744164510824212  0.8467923063425471  0.16011846885456954  1.0000
  H   H85       1.0  0.67445769383343  0.5801270442779004  0.723582945006814  1.0000
  H   H86       1.0  0.32554230590925937  0.08012704446569008  0.7764170549504152  1.0000
  H   H87       1.0  0.3255423059116764  0.4198729561669707  0.2764170550857301  1.0000
  H   H88       1.0  0.6744576934968881  0.9198729559791811  0.2235829444424229  1.0000
  H   H89       1.0  0.7823306102447125  0.6806208018539992  0.7804700955433819  1.0000
  H   H90       1.0  0.21766939030517274  0.1806208020417889  0.7195299044124802  1.0000
  H   H91       1.0  0.21766939030758978  0.3193791977704214  0.21952990454779514  1.0000
  H   H92       1.0  0.7823306102471296  0.8193791975826318  0.28047009567869674  1.0000
  H   H93       1.0  0.6104282409967104  0.9324720121222845  0.8277012433591258  1.0000
  H   H94       1.0  0.38957175874597905  0.43247201148962355  0.6722987565981036  1.0000
  H   H95       1.0  0.38957175874839606  0.06752798832258672  0.17229875673341835  1.0000
  H   H96       1.0  0.6104282409991274  0.567527988134797  0.32770124349444063  1.0000
  H   H97       1.0  0.777646214460604  0.8770339936883319  0.9761373822173359  1.0000
  H   H98       1.0  0.2223537852820855  0.37703399387612163  0.5238626177398934  1.0000
  H   H99       1.0  0.22235378528450253  0.12296600593608867  0.023862617875208207  1.0000
  H   H100      1.0  0.7776462141240619  0.6229660065687495  0.47613738165294484  1.0000
  H   H101      1.0  0.7909682972879664  0.8155405582819338  0.8770659162618283  1.0000
  H   H102      1.0  0.20903170245472302  0.3155405584697236  0.6229340836954009  1.0000
  H   H103      1.0  0.20903170245714006  0.18445944134248668  0.12293408383071576  1.0000
  H   H104      1.0  0.7909682972903833  0.6844594419751475  0.3770659163971432  1.0000
  H   H105      1.0  0.7399459476708834  0.7362497514264421  0.9501627643184928  1.0000
  H   H106      1.0  0.2600540520718061  0.23624975161423178  0.5498372356387365  1.0000
  H   H107      1.0  0.2600540520742231  0.2637502481979785  0.04983723577405137  1.0000
  H   H108      1.0  0.7399459476733004  0.7637502480101889  0.4501627644538076  1.0000
  H   H109      1.0  0.5331619433984599  0.7864683788219179  0.955767125647054  1.0000
  H   H110      1.0  0.46683805634422965  0.2864683790097075  0.5442328743101753  1.0000
  H   H111      1.0  0.4668380563466466  0.21353162080250276  0.04423287444549009  1.0000
  H   H112      1.0  0.5331619434008769  0.7135316206147131  0.45576712578236883  1.0000
  H   H113      1.0  0.45498261707502446  0.9012391073483424  0.8901755226267143  1.0000
  H   H114      1.0  0.545017382667665  0.4012391075361321  0.609824477330515  1.0000
  H   H115      1.0  0.545017382331123  0.09876089227607814  0.10982447676612393  1.0000
  H   H116      1.0  0.4549826170774416  0.5987608929087389  0.3901755227620291  1.0000
  H   H117      1.0  0.5909420935270828  0.9213720339087578  0.9844589279603315  1.0000
  H   H118      1.0  0.40905790621560656  0.42137203327609696  0.5155410719968977  1.0000
  H   H119      1.0  0.4090579070252196  0.07862796653611334  0.015541072130845471  1.0000
  H   H120      1.0  0.5909420935294999  0.5786279663483237  0.4844589280956464  1.0000
  C   C1        1.0  0.39959480784351514  0.8294571627584219  0.7014926822104037  1.0000
  C   C2        1.0  0.6004051918991743  0.32945716294621163  0.7985073177468255  1.0000
  C   C3        1.0  0.6004051927087872  0.17054283686599866  0.2985073178807733  1.0000
  C   C4        1.0  0.3995948075069732  0.6705428366782089  0.20149268164601267  1.0000
  C   C5        1.0  0.23766756503858458  0.8726328797781219  0.5092742117697533  1.0000
  C   C6        1.0  0.7623324347041048  0.3726328799659117  0.9907257881874759  1.0000
  C   C7        1.0  0.7623324347065219  0.12736711984629864  0.49072578832279085  1.0000
  C   C8        1.0  0.23766756584819754  0.627367119658509  0.009274211903700985  1.0000
  C   C9        1.0  0.33541945306385484  0.8975539899250621  0.47506851961858665  1.0000
  C   C10       1.0  0.6645805466836687  0.3975539901128518  0.024931480609272253  1.0000
  C   C11       1.0  0.6645805466812517  0.10244600969935852  0.5249314804739574  1.0000
  C   C12       1.0  0.3354194530614378  0.6024460103320193  0.9750685194832718  1.0000
  C   C13       1.0  0.19416390792825144  0.9752691839463817  0.5432080716451645  1.0000
  C   C14       1.0  0.805836091814438  0.47526918331372087  0.9567919283120648  1.0000
  C   C15       1.0  0.8058360918168551  0.024730816498489454  0.45679192844737954  1.0000
  C   C16       1.0  0.19416390793066846  0.5247308163106997  0.04320807178047933  1.0000
  C   C17       1.0  0.16239364043165908  0.7454719235543273  0.6398151072273702  1.0000
  C   C18       1.0  0.8376063593110303  0.24547192292166656  0.860184892729859  1.0000
  C   C19       1.0  0.8376063593134475  0.2545280768905438  0.36018489286517386  1.0000
  C   C20       1.0  0.16239364043407614  0.754528076702754  0.1398151073626851  1.0000
  C   C21       1.0  0.04654566523066683  0.7185673620129015  0.5593802931952417  1.0000
  C   C22       1.0  0.9534543345120225  0.21856736138024063  0.9406197067619876  1.0000
  C   C23       1.0  0.9534543345144396  0.28143263843196964  0.4406197068973023  1.0000
  C   C24       1.0  0.04654566523308388  0.78143263824418  0.0593802933305566  1.0000
  C   C25       1.0  0.1956370048942116  0.6600434749975655  0.7176486434768443  1.0000
  C   C26       1.0  0.8043629951874367  0.16004347518535525  0.7823513571800907  1.0000
  C   C27       1.0  0.8043629948508948  0.33995652462685505  0.28235135661569977  1.0000
  C   C28       1.0  0.1956370045576697  0.8399565252595158  0.21764864291245328  1.0000
  C   C29       1.0  0.6135244908373492  0.7483869513686541  0.6869525649168889  1.0000
  C   C30       1.0  0.38647550890534016  0.2483869515564438  0.8130474350403403  1.0000
  C   C31       1.0  0.3864755089077572  0.25161304825576647  0.31304743517565514  1.0000
  C   C32       1.0  0.6135244905008074  0.7516130488884273  0.1869525643524979  1.0000
  C   C33       1.0  0.6582953986333573  0.8604424924912398  0.6709221802611576  1.0000
  C   C34       1.0  0.3417046011093321  0.36044249267902945  0.8290778196960716  1.0000
  C   C35       1.0  0.34170460111174905  0.13955750713318082  0.3290778198313864  1.0000
  C   C36       1.0  0.6582953982968155  0.6395575077658416  0.17092217969676662  1.0000
  C   C37       1.0  0.7089772866484911  0.6605302794573109  0.7150247765579921  1.0000
  C   C38       1.0  0.2910227130941983  0.16053027964510064  0.7849752233992371  1.0000
  C   C39       1.0  0.29102271309661537  0.33946972016710963  0.28497522353455196  1.0000
  C   C40       1.0  0.7089772866509082  0.83946971997932  0.215024776693307  1.0000
  C   C41       1.0  0.6108857674735614  0.8533448531443013  0.8626695875541172  1.0000
  C   C42       1.0  0.3891142330763241  0.35334485251164044  0.637330412401745  1.0000
  C   C43       1.0  0.3891142330787411  0.1466551473005698  0.13733041253705985  1.0000
  C   C44       1.0  0.6108857674759783  0.6466551471127802  0.362669587689432  1.0000
  C   C45       1.0  0.7372834649940193  0.8178714228777375  0.9191908754994496  1.0000
  C   C46       1.0  0.26271653474867  0.3178714230655272  0.5808091244577797  1.0000
  C   C47       1.0  0.2627165347510871  0.1821285767466831  0.08080912459309456  1.0000
  C   C48       1.0  0.7372834649964364  0.6821285773793438  0.41919087563476437  1.0000
  C   C49       1.0  0.5427632289889545  0.866167923451473  0.9262280403844142  1.0000
  C   C50       1.0  0.4572367715609308  0.36616792363926265  0.5737719595714479  1.0000
  C   C51       1.0  0.4572367715633478  0.13383207699339814  0.07377195970676281  1.0000
  C   C52       1.0  0.5427632289913717  0.6338320768056084  0.42622804051972907  1.0000
  P   P1        1.0  0.28255314788723956  0.7674281848506788  0.6010448255560259  1.0000
  P   P2        1.0  0.7174468526626457  0.26742818421801795  0.8989551743998363  1.0000
  P   P3        1.0  0.7174468526650628  0.23257181559419235  0.3989551745351511  1.0000
  P   P4        1.0  0.28255314788965663  0.7325718154064026  0.10104482569134073  1.0000
  P   P5        1.0  0.5359026662994769  0.7547801092514536  0.7677009154773521  1.0000
  P   P6        1.0  0.46409733425040856  0.2547801094392433  0.7322990844785102  1.0000
  P   P7        1.0  0.4640973342528255  0.24521989037296701  0.23229908461382498  1.0000
  P   P8        1.0  0.535902665962935  0.7452198901851773  0.267700914912961  1.0000
  S   S1        1.0  0.3371825902501394  0.6279760949411028  0.5595263504469378  1.0000
  S   S2        1.0  0.662817410299746  0.12797609512889258  0.9404736495089245  1.0000
  S   S3        1.0  0.6628174103021629  0.37202390550376824  0.44047364964423924  1.0000
  S   S4        1.0  0.33718259025255637  0.8720239053159785  0.05952635058225262  1.0000
  S   S5        1.0  0.5093990690659375  0.6120264502213592  0.8149424366645627  1.0000
  S   S6        1.0  0.49060093067675187  0.11202644958869834  0.6850575632926665  1.0000
  S   S7        1.0  0.4906009303402099  0.387973550223512  0.18505756272827542  1.0000
  S   S8        1.0  0.5093990690683545  0.8879735500357223  0.3149424367998776  1.0000
  I   I1        1.0  0.17211642014312525  0.5916799710612219  0.3876904814554847  1.0000
  I   I2        1.0  0.8278835804115944  0.09167997042856119  0.11230951877100719  1.0000
  I   I3        1.0  0.8278835804091773  0.4083200293836491  0.6123095186356925  1.0000
  I   I4        1.0  0.17211641933351227  0.9083200291958595  0.8876904813215369  1.0000
  I   I5        1.0  0.9970222890687349  0.533970442702557  0.20667474925010165  1.0000
  I   I6        1.0  0.0029777106787886357  0.033970442069896196  0.29332525097775725  1.0000
  I   I7        1.0  0.0029777106763715904  0.46602955774231414  0.7933252508424424  1.0000
  I   I8        1.0  0.9970222890663177  0.9660295575545244  0.7066747491147867  1.0000
