data_image0
_chemical_formula_structural       H128C56P8S8I16
_chemical_formula_sum              "H128 C56 P8 S8 I16"
_cell_length_a       7.530450666022031
_cell_length_b       16.074897740678004
_cell_length_c       20.577234242142726
_cell_angle_alpha    90.0
_cell_angle_beta     90.0
_cell_angle_gamma    90.0

_space_group_name_H-M_alt    "P 1"
_space_group_IT_number       1

loop_
  _space_group_symop_operation_xyz
  'x, y, z'

loop_
  _atom_site_type_symbol
  _atom_site_label
  _atom_site_symmetry_multiplicity
  _atom_site_fract_x
  _atom_site_fract_y
  _atom_site_fract_z
  _atom_site_occupancy
  H   H1        1.0  0.6994982815261682  0.5072856009133192  0.6207912292623936  1.0000
  H   H2        1.0  0.8005017172742958  0.49271439904450287  0.120791229314459  1.0000
  H   H3        1.0  0.30050171767414113  0.007285600934408204  0.8792087705814102  1.0000
  H   H4        1.0  0.1994982819260136  0.992714399023414  0.3792087706334756  1.0000
  H   H5        1.0  0.5189856428691683  0.4487064631053619  0.6509365385250735  1.0000
  H   H6        1.0  0.9810143559312957  0.5512935368524603  0.15093653857713896  1.0000
  H   H7        1.0  0.4810143563311411  0.948706463084273  0.8490634613187302  1.0000
  H   H8        1.0  0.01898564326901358  0.051293536873549206  0.34906346137079564  1.0000
  H   H9        1.0  0.48509331672305955  0.5810551694126075  0.5420896884749877  1.0000
  H   H10       1.0  0.0149066828770951  0.4189448305452146  0.04208968852705316  1.0000
  H   H11       1.0  0.5149066824772498  0.08105516943369645  0.9579103118547899  1.0000
  H   H12       1.0  0.985093317651156  0.9189448305241257  0.4579103114208814  1.0000
  H   H13       1.0  0.31119960862022916  0.5177784745054897  0.5705790570218734  1.0000
  H   H14       1.0  0.18880039097992551  0.48222152545233243  0.07057905707393884  1.0000
  H   H15       1.0  0.688800391908022  0.017778474526578613  0.9294209428219303  1.0000
  H   H16       1.0  0.8111996082203838  0.9822215254312434  0.42942094287399574  1.0000
  H   H17       1.0  0.7512391423697362  0.5529520170761034  0.7509682461772317  1.0000
  H   H18       1.0  0.7487608577586695  0.44704798288171876  0.25096824622929714  1.0000
  H   H19       1.0  0.24876085683057306  0.05295201709719233  0.749031753666572  1.0000
  H   H20       1.0  0.25123914276958165  0.9470479828606299  0.24903175371863742  1.0000
  H   H21       1.0  0.44440607188358805  0.6462897859505645  0.8183500582168861  1.0000
  H   H22       1.0  0.055593929044508425  0.35371021400725766  0.31835005826895146  1.0000
  H   H23       1.0  0.5555939286446632  0.14628978597165337  0.6816499416269177  1.0000
  H   H24       1.0  0.9444060714837427  0.8537102139861686  0.1816499416789831  1.0000
  H   H25       1.0  0.6600394877330252  0.68561673161444  0.8007884012056681  1.0000
  H   H26       1.0  0.8399605110674389  0.3143832683433821  0.30078840125773354  1.0000
  H   H27       1.0  0.3399605114672841  0.18561673163552894  0.6992115986381356  1.0000
  H   H28       1.0  0.16003948813287056  0.8143832683222931  0.19921159869020108  1.0000
  H   H29       1.0  0.6327663192191292  0.6074447624814657  0.8607881536248463  1.0000
  H   H30       1.0  0.8672336795813349  0.39255523747635646  0.36078815367691175  1.0000
  H   H31       1.0  0.3672336799811802  0.10744476250255462  0.6392118467049314  1.0000
  H   H32       1.0  0.13276631961897445  0.8925552374552675  0.13921184627102284  1.0000
  H   H33       1.0  0.6044693089271057  0.46149559951646096  0.8339022789980729  1.0000
  H   H34       1.0  0.8955306912013  0.5385044010634491  0.33390227905013825  1.0000
  H   H35       1.0  0.39553069027320364  0.9614955994953721  0.6660977208457308  1.0000
  H   H36       1.0  0.10446930932695103  0.03850440108453802  0.16609772089779634  1.0000
  H   H37       1.0  0.5636839876201349  0.4252738742281829  0.7542345622044045  1.0000
  H   H38       1.0  0.9363160125082708  0.5747261257296392  0.25423456225646995  1.0000
  H   H39       1.0  0.43631601158017436  0.925273874207094  0.7457654376393992  1.0000
  H   H40       1.0  0.06368398801998035  0.07472612575072812  0.2457654376914646  1.0000
  H   H41       1.0  0.39470024462295633  0.4797972338251836  0.7973063069087943  1.0000
  H   H42       1.0  0.10529975630514013  0.5202027661326385  0.2973063069608598  1.0000
  H   H43       1.0  0.6052997559052948  0.9797972338040947  0.7026936929350094  1.0000
  H   H44       1.0  0.894700244223111  0.020202766153727483  0.20269369298707476  1.0000
  H   H45       1.0  0.579777823882397  0.680453238736351  0.6010164536432953  1.0000
  H   H46       1.0  0.9202221762460088  0.31954676122147113  0.10101645369536064  1.0000
  H   H47       1.0  0.42022217664585415  0.18045323875743996  0.8989835466864825  1.0000
  H   H48       1.0  0.0797778242822423  0.8195467612003822  0.3989835462525739  1.0000
  H   H49       1.0  0.8707244600360307  0.7320478730151889  0.6335152035788145  1.0000
  H   H50       1.0  0.6292755400923752  0.26795212694263315  0.13351520363087988  1.0000
  H   H51       1.0  0.1292755404922205  0.23204787303627789  0.8664847967509631  1.0000
  H   H52       1.0  0.3707244604358759  0.7679521269215442  0.36648479680302865  1.0000
  H   H53       1.0  0.8697690617047644  0.623805825814047  0.6470491672166313  1.0000
  H   H54       1.0  0.6302309384236414  0.3761941741437752  0.14704916726869674  1.0000
  H   H55       1.0  0.13023093882348674  0.12380582583513586  0.8529508326271724  1.0000
  H   H56       1.0  0.369769060776668  0.8761941741226863  0.3529508326792378  1.0000
  H   H57       1.0  0.8474567131546134  0.6939340529533913  0.7138369460710597  1.0000
  H   H58       1.0  0.6525432869737924  0.3060659470044309  0.2138369456371512  1.0000
  H   H59       1.0  0.1525432873736377  0.1939340529744802  0.7861630542587179  1.0000
  H   H60       1.0  0.347456712226517  0.8060659469833419  0.28616305431078337  1.0000
  H   H61       1.0  0.5515936408350741  0.7768521997125495  0.7292416455690517  1.0000
  H   H62       1.0  0.94840635796539  0.22314780024527264  0.22924164562111718  1.0000
  H   H63       1.0  0.44840635836523535  0.2768521997336384  0.770758354274752  1.0000
  H   H64       1.0  0.05159364123491933  0.7231478002241838  0.27075835432681744  1.0000
  H   H65       1.0  0.38114791096775014  0.7673076792760837  0.669869965409144  1.0000
  H   H66       1.0  0.11885208863240451  0.2326923206817385  0.1698699654612094  1.0000
  H   H67       1.0  0.618852089560501  0.26730767929717253  0.8301300344346597  1.0000
  H   H68       1.0  0.8811479105679049  0.7326923206606495  0.3301300344867252  1.0000
  H   H69       1.0  0.5840858874284978  0.8175003562694969  0.6497565956953285  1.0000
  H   H70       1.0  0.9159141113719662  0.18249964368832522  0.14975659574739392  1.0000
  H   H71       1.0  0.4159141117718116  0.3175003562905859  0.8502434041484753  1.0000
  H   H72       1.0  0.0840858878283431  0.6824996436672363  0.3502434042005407  1.0000
  H   H73       1.0  0.27595964068612094  0.5016753966398707  0.4372952255931065  1.0000
  H   H74       1.0  0.2240403602419755  0.4983246033179514  0.937295225541041  1.0000
  H   H75       1.0  0.7240403598421301  0.0016753966609596655  0.06270477435482802  1.0000
  H   H76       1.0  0.7759596402862756  0.9983246032968623  0.5627047743027626  1.0000
  H   H77       1.0  0.3720267477006009  0.4468229263956146  0.32579957058903075  1.0000
  H   H78       1.0  0.1279732518995538  0.5531770735622075  0.8257995705369654  1.0000
  H   H79       1.0  0.6279732528276502  0.9468229263745257  0.17420042935890379  1.0000
  H   H80       1.0  0.8720267473007556  0.053177073583296444  0.6742004293068384  1.0000
  H   H81       1.0  0.34125225487434085  0.36570554381343456  0.38285194197117006  1.0000
  H   H82       1.0  0.15874774605375558  0.6342944561443876  0.8828519419191047  1.0000
  H   H83       1.0  0.6587477456539103  0.8657055437923457  0.11714805797676453  1.0000
  H   H84       1.0  0.8412522544744956  0.13429445616547653  0.6171480579246991  1.0000
  H   H85       1.0  0.5583704291394262  0.3995728833624971  0.3631843163205298  1.0000
  H   H86       1.0  0.9416295709889796  0.600427117217413  0.8631843167544383  1.0000
  H   H87       1.0  0.44162957138882486  0.8995728833414082  0.13681568362740482  1.0000
  H   H88       1.0  0.05837042953927162  0.100427116616414  0.6368156835753395  1.0000
  H   H89       1.0  0.648909465943204  0.5548994982050677  0.3920233927006121  1.0000
  H   H90       1.0  0.8510905341852019  0.44510050175275456  0.8920233926485468  1.0000
  H   H91       1.0  0.35109053458504724  0.05489949822615655  0.10797660724732246  1.0000
  H   H92       1.0  0.14890946501510743  0.9451005017316656  0.607976607195257  1.0000
  H   H93       1.0  0.5033876786556867  0.6164751969104612  0.44014257666616785  1.0000
  H   H94       1.0  0.996612321472719  0.38352480304736103  0.9401425766141024  1.0000
  H   H95       1.0  0.49661232187256443  0.11647519693155008  0.05985742328176666  1.0000
  H   H96       1.0  0.00338767772759025  0.883524803026272  0.5598574232297012  1.0000
  H   H97       1.0  0.4445431712479937  0.5905925880931654  0.35937897838839733  1.0000
  H   H98       1.0  0.05545682835216097  0.40940741186465673  0.8593789783363319  1.0000
  H   H99       1.0  0.5554568292802574  0.09059258811425433  0.14062102155953723  1.0000
  H   H100      1.0  0.9445431708481484  0.9094074118435679  0.6406210219934458  1.0000
  H   H101      1.0  0.4385216192837002  0.3055122526579047  0.4766405686296299  1.0000
  H   H102      1.0  0.06147838031645443  0.6944877472999175  0.9766405685775644  1.0000
  H   H103      1.0  0.5614783812445509  0.8055122526368158  0.02335943180427863  1.0000
  H   H104      1.0  0.938521618883855  0.19448774732100638  0.5233594317522132  1.0000
  H   H105      1.0  0.130103575928152  0.2942789843091392  0.5227893794379922  1.0000
  H   H106      1.0  0.36989642499994446  0.7057210156486828  0.02278937949005768  1.0000
  H   H107      1.0  0.8698964246000992  0.7942789842880503  0.9772106204058114  1.0000
  H   H108      1.0  0.6301035755283066  0.20572101566977186  0.4772106204578769  1.0000
  H   H109      1.0  0.1455650383510252  0.376205924140761  0.4653155315883189  1.0000
  H   H110      1.0  0.3544349625770713  0.6237940758170611  0.9653155315362535  1.0000
  H   H111      1.0  0.8544349621772259  0.876205924119672  0.034684468359615694  1.0000
  H   H112      1.0  0.6455650379511799  0.12379407583815007  0.5346844683075503  1.0000
  H   H113      1.0  0.14129504822346406  0.39808401914786284  0.5502077979368454  1.0000
  H   H114      1.0  0.3587049513766906  0.6019159808099593  0.0502077979889108  1.0000
  H   H115      1.0  0.8587049509768453  0.8980840191267738  0.9497922019069585  1.0000
  H   H116      1.0  0.6412950491515605  0.10191598083104823  0.44979220195902375  1.0000
  H   H117      1.0  0.3871038094908451  0.3371145718884949  0.6227059856157672  1.0000
  H   H118      1.0  0.11289619010930955  0.6628854280693273  0.12270598566783263  1.0000
  H   H119      1.0  0.6128961897094642  0.8371145718674059  0.8772940142280365  1.0000
  H   H120      1.0  0.8871038104189416  0.16288542809041612  0.37729401428010195  1.0000
  H   H121      1.0  0.5934678133096113  0.30455289601074076  0.5883378935933886  1.0000
  H   H122      1.0  0.9065321868187945  0.6954471039470814  0.08833789364545408  1.0000
  H   H123      1.0  0.40653218721863993  0.8045528959896519  0.911662106736389  1.0000
  H   H124      1.0  0.09346781238151475  0.19544710396817033  0.41166210678845444  1.0000
  H   H125      1.0  0.400796926220932  0.24085347182038747  0.5817108484620892  1.0000
  H   H126      1.0  0.0992030733792227  0.7591465281374347  0.08171084851415465  1.0000
  H   H127      1.0  0.5992030743073191  0.7408534717992986  0.9182891513817145  1.0000
  H   H128      1.0  0.9007969258210866  0.2591465281585236  0.4182891514337799  1.0000
  C   C1        1.0  0.5544154560148585  0.5077533395030941  0.6276799757446438  1.0000
  C   C2        1.0  0.9455845441135472  0.4922466610768159  0.12767997579670926  1.0000
  C   C3        1.0  0.44558454318545077  0.007753338902095137  0.87232002409916  1.0000
  C   C4        1.0  0.054415456414703925  0.992246661055727  0.37232002415122534  1.0000
  C   C5        1.0  0.4561863203619784  0.5199348471654714  0.563599117040151  1.0000
  C   C6        1.0  0.04381367923817625  0.48006515279235074  0.06359911660624244  1.0000
  C   C7        1.0  0.5438136801662726  0.019934847186560335  0.9364008832896267  1.0000
  C   C8        1.0  0.9561863199621331  0.9800651527712617  0.43640088334169214  1.0000
  C   C9        1.0  0.6092068686804645  0.560050691782521  0.7630402417173929  1.0000
  C   C10       1.0  0.8907931314479413  0.43994930817530115  0.2630402417694584  1.0000
  C   C11       1.0  0.3907931318477866  0.0600506918036099  0.7369597581264107  1.0000
  C   C12       1.0  0.10920686775236807  0.9399493081542123  0.23695975817847617  1.0000
  C   C13       1.0  0.5851906938164526  0.6293455070883269  0.8132943219223098  1.0000
  C   C14       1.0  0.9148093063119532  0.3706544928694952  0.3132943219743751  1.0000
  C   C15       1.0  0.4148093067117985  0.12934550710941586  0.686705678407468  1.0000
  C   C16       1.0  0.08519069421629795  0.8706544928484063  0.1867056784595334  1.0000
  C   C17       1.0  0.5380930012971611  0.4767542066912557  0.7878907786740423  1.0000
  C   C18       1.0  0.9619069988312448  0.5232457938886544  0.2878907787261078  1.0000
  C   C19       1.0  0.4619069992310901  0.9767542066701668  0.7121092211697613  1.0000
  C   C20       1.0  0.0380930003690646  0.023245793287655418  0.21210922122182674  1.0000
  C   C21       1.0  0.6086295619304694  0.6849410439568747  0.6535321652925724  1.0000
  C   C22       1.0  0.8913704381979365  0.31505895600094735  0.15353216534463782  1.0000
  C   C23       1.0  0.39137043859778176  0.18494104397796368  0.8464678350372054  1.0000
  C   C24       1.0  0.10862956233031469  0.8150589559798584  0.3464678350892707  1.0000
  C   C25       1.0  0.8100543885804874  0.6826689548531553  0.663036985896667  1.0000
  C   C26       1.0  0.6899456115479184  0.3173310451046669  0.16303698594873248  1.0000
  C   C27       1.0  0.18994561194776377  0.18266895487424417  0.8369630139471367  1.0000
  C   C28       1.0  0.3100543876523909  0.817331045083578  0.33696301399920214  1.0000
  C   C29       1.0  0.5253695277297267  0.7660059583981306  0.6775041735904492  1.0000
  C   C30       1.0  0.9746304723986791  0.2339940421817794  0.17750417364251464  1.0000
  C   C31       1.0  0.4746304714705827  0.2660059577971316  0.8224958262533545  1.0000
  C   C32       1.0  0.025369528129571984  0.7339940421606904  0.32249582630541995  1.0000
  C   C33       1.0  0.41511807574875553  0.4869675942131271  0.42482674625419986  1.0000
  C   C34       1.0  0.08488192385139914  0.5130324057446951  0.9248267462021345  1.0000
  C   C35       1.0  0.5848819247794956  0.9869675941920382  0.07517325369373472  1.0000
  C   C36       1.0  0.9151180753489102  0.013032405765783987  0.5751732541276433  1.0000
  C   C37       1.0  0.42156097566959516  0.4206977325203666  0.37158767694544115  1.0000
  C   C38       1.0  0.07843902393055953  0.5793022674374556  0.8715876768933758  1.0000
  C   C39       1.0  0.5784390235307143  0.9206977324992777  0.12841232300249344  1.0000
  C   C40       1.0  0.9215609765976915  0.0793022674585445  0.6284123229504279  1.0000
  C   C41       1.0  0.5089556123504372  0.5669087982400834  0.40358264732156895  1.0000
  C   C42       1.0  0.9910443877779687  0.4330912017177387  0.9035826472695035  1.0000
  C   C43       1.0  0.491044388177814  0.06690879826117235  0.0964173526263656  1.0000
  C   C44       1.0  0.008955612750282466  0.9330912016966498  0.5964173525743002  1.0000
  C   C45       1.0  0.3930228204474026  0.34539168519561747  0.516966671264966  1.0000
  C   C46       1.0  0.10697718048069385  0.6546083147622047  0.01696667131703143  1.0000
  C   C47       1.0  0.6069771800808486  0.8453916851745285  0.9830333285788377  1.0000
  C   C48       1.0  0.8930228200475573  0.1546083147832936  0.48303332863090315  1.0000
  C   C49       1.0  0.191351218394103  0.3549742643500839  0.5130941036952777  1.0000
  C   C50       1.0  0.30864878120605166  0.6450257356077383  0.013094103747343207  1.0000
  C   C51       1.0  0.8086487821341481  0.8549742643289949  0.9869058961485259  1.0000
  C   C52       1.0  0.6913512179942577  0.1450257356288272  0.4869058962005913  1.0000
  C   C53       1.0  0.44906579034616656  0.3052838785768236  0.581263317472665  1.0000
  C   C54       1.0  0.05093420925398808  0.6947161213809985  0.08126331752473044  1.0000
  C   C55       1.0  0.5509342088541427  0.8052838785557347  0.9187366823711387  1.0000
  C   C56       1.0  0.949065791274263  0.19471612140208747  0.4187366824232041  1.0000
  P   P1        1.0  0.5040588908080758  0.590492663351751  0.6860210815450214  1.0000
  P   P2        1.0  0.9959411093203301  0.40950733660607114  0.1860210815970868  1.0000
  P   P3        1.0  0.49594110839223365  0.09049266337283994  0.8139789182987824  1.0000
  P   P4        1.0  0.004058891207921045  0.9095073365849822  0.3139789183508478  1.0000
  P   P5        1.0  0.5083712675090514  0.44415704878374296  0.5003415784087369  1.0000
  P   P6        1.0  0.9916287326193544  0.5558429511740791  0.0003415784608023246  1.0000
  P   P7        1.0  0.49162873301919974  0.944157048762654  0.9996584214350668  1.0000
  P   P8        1.0  0.008371266580954927  0.05584295119516812  0.4996584214871323  1.0000
  S   S1        1.0  0.2405106772921393  0.6110721118394927  0.6945283711029873  1.0000
  S   S2        1.0  0.2594893223080154  0.3889278881183293  0.19452837115505275  1.0000
  S   S3        1.0  0.7594893219081701  0.11107211186058173  0.8054716287408163  1.0000
  S   S4        1.0  0.7405106782202358  0.8889278880972404  0.30547162879288187  1.0000
  S   S5        1.0  0.7696049170270263  0.41856743281007086  0.4941798465400134  1.0000
  S   S6        1.0  0.7303950831013796  0.5814325671477514  0.994179846487948  1.0000
  S   S7        1.0  0.23039508350122484  0.9185674327889819  0.0058201534079212105  1.0000
  S   S8        1.0  0.26960491609892984  0.08143256716884024  0.5058201533558558  1.0000
  I   I1        1.0  0.0883216064346572  0.4582267177576036  0.6939534624509891  1.0000
  I   I2        1.0  0.4116783944934393  0.5417732822002185  0.1939534625030546  1.0000
  I   I3        1.0  0.911678394093594  0.9582267177365147  0.8060465378787884  1.0000
  I   I4        1.0  0.5883216060348119  0.04177328222130746  0.30604653744488  1.0000
  I   I5        1.0  0.9056637208676785  0.3008809025117942  0.694103189084012  1.0000
  I   I6        1.0  0.5943362792607273  0.6991190974460278  0.19410318913607752  1.0000
  I   I7        1.0  0.09433627966057267  0.8008809024907053  0.8058968112457656  1.0000
  I   I8        1.0  0.405663719939582  0.19911909746711687  0.30589681081185705  1.0000
  I   I9        1.0  0.9440259335442013  0.5700034543183062  0.5014566373972286  1.0000
  I   I10       1.0  0.5559740665842045  0.42999654563951584  0.0014566369633200436  1.0000
  I   I11       1.0  0.05597406698404986  0.07000345433939523  0.9985433629325492  1.0000
  I   I12       1.0  0.4440259326161048  0.9299965456184269  0.4985433629846145  1.0000
  I   I13       1.0  0.16880309776619168  0.7125048522714222  0.511525034712534  1.0000
  I   I14       1.0  0.331196901833963  0.2874951476864  0.011525034764599394  1.0000
  I   I15       1.0  0.8311969014341176  0.21250485229251112  0.9884749651312698  1.0000
  I   I16       1.0  0.668803098694288  0.787495147665311  0.4884749651833352  1.0000
