data_image0
_chemical_formula_structural       H24C28N6O8
_chemical_formula_sum              "H24 C28 N6 O8"
_cell_length_a       6.96034196190391
_cell_length_b       7.310276114265165
_cell_length_c       13.9236009410395
_cell_angle_alpha    94.39677542427432
_cell_angle_beta     97.72129289093878
_cell_angle_gamma    112.41109145398829

_space_group_name_H-M_alt    "P 1"
_space_group_IT_number       1

loop_
  _space_group_symop_operation_xyz
  'x, y, z'

loop_
  _atom_site_type_symbol
  _atom_site_label
  _atom_site_symmetry_multiplicity
  _atom_site_fract_x
  _atom_site_fract_y
  _atom_site_fract_z
  _atom_site_occupancy
  H   H1        1.0  0.1698762464752549  0.7037718200206825  0.7727737894349529  1.0000
  H   H2        1.0  0.8301237534886241  0.2962281792646771  0.22722621048071512  1.0000
  H   H3        1.0  0.8819464664564067  0.10173537461402091  0.7661991214301372  1.0000
  H   H4        1.0  0.11805353413304479  0.8982646261656598  0.23380087858985138  1.0000
  H   H5        1.0  0.0650549665178414  0.10919442979353124  0.6865764674992351  1.0000
  H   H6        1.0  0.9349450340716101  0.8908055709861495  0.31342353252075356  1.0000
  H   H7        1.0  0.9380643029402039  0.8396583122969404  0.5336350374659488  1.0000
  H   H8        1.0  0.06193569702367492  0.1603416869884194  0.4663649624497193  1.0000
  H   H9        1.0  0.6391242641617562  0.6797750482932092  0.394707923315663  1.0000
  H   H10       1.0  0.36087573642769527  0.3202249524864715  0.6052920767043255  1.0000
  H   H11       1.0  0.21447624789083483  0.7639287903819723  0.5752294627701537  1.0000
  H   H12       1.0  0.7855237520730441  0.23607120890338756  0.4247705371455143  1.0000
  H   H13       1.0  0.5133742842231355  0.9339941270702372  0.7116414876934172  1.0000
  H   H14       1.0  0.4866257157407434  0.06600587221512245  0.28835851222225073  1.0000
  H   H15       1.0  0.4872446852554609  0.5856581425470615  0.7573512271859327  1.0000
  H   H16       1.0  0.5127553147084181  0.4143418567382982  0.24264877272973523  1.0000
  H   H17       1.0  0.5690811791416603  0.331907011216184  0.8459231896019411  1.0000
  H   H18       1.0  0.4309188214437163  0.6680929895590053  0.1540768111357939  1.0000
  H   H19       1.0  0.04191465974158655  0.26484204308515674  0.9924871246166173  1.0000
  H   H20       1.0  0.9580853408478649  0.7351579576945241  0.007512875403371296  1.0000
  H   H21       1.0  0.9769251582280041  0.5184992359885733  0.892907670881637  1.0000
  H   H22       1.0  0.023074841735874846  0.4815007632967864  0.107092329034031  1.0000
  H   H23       1.0  0.25265428150415264  0.07953511131749852  0.03994026724048327  1.0000
  H   H24       1.0  0.7473457184597263  0.9204648879678613  0.9600597326751846  1.0000
  C   C1        1.0  0.9937478328168807  0.8679244602171424  0.7723843370745274  1.0000
  C   C2        1.0  0.006252167146998233  0.13207553906821726  0.22761566284114054  1.0000
  C   C3        1.0  0.9284223735413095  0.011337773247759447  0.7152313314637844  1.0000
  C   C4        1.0  0.07157762704814209  0.9886622275319213  0.28476866855620425  1.0000
  C   C5        1.0  0.7475642873467488  0.9017330521712933  0.6321873488779566  1.0000
  C   C6        1.0  0.2524357117927469  0.09826694860814611  0.36781265104355154  1.0000
  C   C7        1.0  0.7803909047614829  0.8254408815789269  0.5428481821253914  1.0000
  C   C8        1.0  0.2196090958279685  0.1745591192007537  0.4571518178945971  1.0000
  C   C9        1.0  0.6141841432691119  0.7352608190276778  0.46467051218418054  1.0000
  C   C10       1.0  0.38581585732033946  0.26473918175200295  0.5353294878358081  1.0000
  C   C11       1.0  0.4121207436424442  0.7180073522889706  0.47687703531971515  1.0000
  C   C12       1.0  0.5878792563214348  0.28199264699638915  0.5231229645959529  1.0000
  C   C13       1.0  0.37313861654411007  0.7835661036546111  0.5659449269239795  1.0000
  C   C14       1.0  0.6268613834197689  0.21643389563074866  0.4340550729916886  1.0000
  C   C15       1.0  0.5420010273811525  0.8763843348205292  0.6429122663072432  1.0000
  C   C16       1.0  0.457998973208299  0.12361566595915155  0.3570877337127454  1.0000
  C   C17       1.0  0.3913175074716387  0.5096162003177308  0.8092910422987886  1.0000
  C   C18       1.0  0.6086824931178128  0.49038380046194996  0.19070895772119995  1.0000
  C   C19       1.0  0.4370595517024437  0.3694289100891685  0.8589682776511542  1.0000
  C   C20       1.0  0.5629404488870078  0.6305710906905122  0.1410317223688343  1.0000
  C   C21       1.0  0.3114858577724701  0.2782990577707571  0.926847094300265  1.0000
  C   C22       1.0  0.6885141428169813  0.7217009430089236  0.07315290571972358  1.0000
  C   C23       1.0  0.1424225000332524  0.33194729607183343  0.9403359997374687  1.0000
  C   C24       1.0  0.8575775005521242  0.6680527047033559  0.059664001000266385  1.0000
  C   C25       1.0  0.10640561567973884  0.47179098724828883  0.8865936539416751  1.0000
  C   C26       1.0  0.893594383459757  0.5282090135311507  0.11340634597983315  1.0000
  C   C27       1.0  0.34958037837882117  0.13218486324559486  0.983699557695402  1.0000
  C   C28       1.0  0.650419620135102  0.8678151360395235  0.016300442121785583  1.0000
  N   N1        1.0  0.23867771500116422  0.6365632647694273  0.39332148431010006  1.0000
  N   N2        1.0  0.76132228495864  0.36343673451144093  0.6066785163233145  1.0000
  N   N3        1.0  0.22895561679813203  0.5597108001058714  0.8228609344223238  1.0000
  N   N4        1.0  0.7710443837913195  0.44028920067380933  0.1771390655976648  1.0000
  N   N5        1.0  0.4950396760984011  0.06899326996348826  0.9691057257119958  1.0000
  N   N6        1.0  0.5049603244910504  0.9310067308161926  0.030894274307992773  1.0000
  O   O1        1.0  0.12906904248240716  0.8128325824490792  0.7337940888095963  1.0000
  O   O2        1.0  0.8709309574814718  0.18716741683628055  0.2662059111060717  1.0000
  O   O3        1.0  0.9220399930448547  0.8118012575761582  0.8464836927257797  1.0000
  O   O4        1.0  0.0779600075445967  0.18819874320352248  0.1535163072942089  1.0000
  O   O5        1.0  0.2789421676987425  0.58861809988948  0.31299040488179986  1.0000
  O   O6        1.0  0.7210578314407533  0.4113819008899596  0.6870095950397083  1.0000
  O   O7        1.0  0.060240769796850314  0.6227865399108112  0.40566492190146053  1.0000
  O   O8        1.0  0.9397592307926013  0.3772134608688694  0.594335078118528  1.0000
