data_image0
_chemical_formula_structural       H24C60N24F16I8
_chemical_formula_sum              "H24 C60 N24 F16 I8"
_cell_length_a       4.307560434883502
_cell_length_b       29.38532278840764
_cell_length_c       13.223102345160477
_cell_angle_alpha    90.0
_cell_angle_beta     96.60096798644157
_cell_angle_gamma    90.0

_space_group_name_H-M_alt    "P 1"
_space_group_IT_number       1

loop_
  _space_group_symop_operation_xyz
  'x, y, z'

loop_
  _atom_site_type_symbol
  _atom_site_label
  _atom_site_symmetry_multiplicity
  _atom_site_fract_x
  _atom_site_fract_y
  _atom_site_fract_z
  _atom_site_occupancy
  H   H1        1.0  0.9865814693107773  0.8956077678473626  0.19093901425691753  1.0000
  H   H2        1.0  0.5134185308065345  0.395607767990421  0.3090609860356811  1.0000
  H   H3        1.0  0.013418528827639498  0.10439223186652054  0.8090609856264083  1.0000
  H   H4        1.0  0.48658146965092924  0.604392232063768  0.6909390138409486  1.0000
  H   H5        1.0  0.6675371275553915  0.8318133935776497  0.06542694150912277  1.0000
  H   H6        1.0  0.8324628725619203  0.33181339338040217  0.4345730587834758  1.0000
  H   H7        1.0  0.33246287319112705  0.16818660647653938  0.9345730591287763  1.0000
  H   H8        1.0  0.1675371278955435  0.6681866066737869  0.565426941093154  1.0000
  H   H9        1.0  0.550803158057548  0.6614458108885475  0.9982745396756816  1.0000
  H   H10       1.0  0.9491968404541281  0.16144581103160585  0.5017254605265937  1.0000
  H   H11       1.0  0.44919684008086885  0.3385541891656416  0.0017254602076441682  1.0000
  H   H12       1.0  0.05080315768428862  0.8385541890225833  0.498274539356732  1.0000
  H   H13       1.0  0.0190993571518486  0.6337084933212365  0.1458143496103453  1.0000
  H   H14       1.0  0.4809006429323558  0.13370849346429495  0.35418564994733476  1.0000
  H   H15       1.0  0.980900643305615  0.3662915067329526  0.8541856502662843  1.0000
  H   H16       1.0  0.5190993575251079  0.8662915065898942  0.645814349929295  1.0000
  H   H17       1.0  0.8262518386915877  0.6913792132314  0.42955953002564745  1.0000
  H   H18       1.0  0.6737481614257241  0.19137921303415245  0.07044047026695109  1.0000
  H   H19       1.0  0.17374816176587607  0.3086207868227891  0.5704404698509822  1.0000
  H   H20       1.0  0.32625183700174754  0.8086207866797306  0.929559530377644  1.0000
  H   H21       1.0  0.6869212625768116  0.7830044541514062  0.40559419639743854  1.0000
  H   H22       1.0  0.8130787375405001  0.2830044542944647  0.09440580389516  1.0000
  H   H23       1.0  0.31307873556160515  0.21699554590278286  0.5944058034858872  1.0000
  H   H24       1.0  0.1869212632060186  0.7169955457597244  0.9055941967427392  1.0000
  C   C1        1.0  0.9692668402233502  0.9598286125046984  0.5519772578232407  1.0000
  C   C2        1.0  0.5307331606073729  0.45982861264775693  0.9480227423723386  1.0000
  C   C3        1.0  0.030733160234113484  0.04017138754949057  0.44802274205338904  1.0000
  C   C4        1.0  0.4692668398500909  0.5401713874064321  0.05197725750429105  1.0000
  C   C5        1.0  0.8183396115523013  0.9637548222261556  0.45322651283720067  1.0000
  C   C6        1.0  0.6816603882759557  0.463754822369214  0.04677348669412847  1.0000
  C   C7        1.0  0.18166038890516245  0.0362451778280335  0.5467734870394291  1.0000
  C   C8        1.0  0.31833961218150825  0.536245177684975  0.9532265131825013  1.0000
  C   C9        1.0  0.8523189886909088  0.004691278397472054  0.40193332450845  1.0000
  C   C10       1.0  0.6476810111373481  0.5046912785947195  0.09806667502287907  1.0000
  C   C11       1.0  0.1476810117665549  0.995308721656717  0.5980666753681797  1.0000
  C   C12       1.0  0.35231898932011574  0.4953087214594695  0.9019333248537507  1.0000
  C   C13       1.0  0.9626098770063848  0.5433069527586817  0.5359322979332949  1.0000
  C   C14       1.0  0.5373901238243384  0.04330695290174011  0.9640677022622844  1.0000
  C   C15       1.0  0.037390123451079  0.4566930472955074  0.46406770194333485  1.0000
  C   C16       1.0  0.4626098766331254  0.956693047152449  0.035932297614345195  1.0000
  C   C17       1.0  0.11746050763292963  0.53798706292369  0.449611518428866  1.0000
  C   C18       1.0  0.38253949274032967  0.03798706306674841  0.05038848189008359  1.0000
  C   C19       1.0  0.8825394928245341  0.46201293713049907  0.5503884814477636  1.0000
  C   C20       1.0  0.617460507717134  0.9620129369874406  0.9496115179865461  1.0000
  C   C21       1.0  0.15576740304156164  0.4937328388212748  0.415072918433284  1.0000
  C   C22       1.0  0.34423259733169775  0.9937328390185223  0.08492708188566568  1.0000
  C   C23       1.0  0.8442325974159022  0.5062671608926084  0.5849270814433457  1.0000
  C   C24       1.0  0.655767403125766  0.0062671610356668  0.9150729179909639  1.0000
  C   C25       1.0  0.01055926927870085  0.8589275602566122  0.19192691639307696  1.0000
  C   C26       1.0  0.48944073109455855  0.3589275600593647  0.3080730839258726  1.0000
  C   C27       1.0  0.989440731178763  0.14107243979757686  0.8080730834835528  1.0000
  C   C28       1.0  0.5105592693629053  0.6410724399948243  0.6919269159507571  1.0000
  C   C29       1.0  0.849055733020775  0.8280431290548551  0.12828668248704767  1.0000
  C   C30       1.0  0.6509442670965367  0.32804312919791356  0.3717133178055509  1.0000
  C   C31       1.0  0.15094426743668876  0.17195687099933396  0.871713317389582  1.0000
  C   C32       1.0  0.3490557310418799  0.6719568708562754  0.6282866820777747  1.0000
  C   C33       1.0  0.8856335720907581  0.7424489513726471  0.12606848465010523  1.0000
  C   C34       1.0  0.6143664280265537  0.24244895151570553  0.3739315156424934  1.0000
  C   C35       1.0  0.11436642836670571  0.257551048681542  0.8739315152265246  1.0000
  C   C36       1.0  0.38563357243091  0.7575510485384835  0.6260684842341363  1.0000
  C   C37       1.0  0.6999361874702273  0.6822478182172246  0.05157606480979416  1.0000
  C   C38       1.0  0.8000638126470845  0.18224781836028303  0.44842393548280446  1.0000
  C   C39       1.0  0.3000638132762914  0.31775218183696446  0.9484239358281051  1.0000
  C   C40       1.0  0.19993618781037928  0.8177521816939061  0.5515760643938252  1.0000
  C   C41       1.0  0.9316492726070538  0.6671962612482985  0.12390233500321633  1.0000
  C   C42       1.0  0.5683507275102581  0.16719626105105095  0.37609766528938227  1.0000
  C   C43       1.0  0.06835072785041  0.3328037388058906  0.8760976648734135  1.0000
  C   C44       1.0  0.4316492729472057  0.8328037390031381  0.6239023345872474  1.0000
  C   C45       1.0  0.2834938920925264  0.7124380531990903  0.25272373085173705  1.0000
  C   C46       1.0  0.21650610828073294  0.2124380533421487  0.24727626946721254  1.0000
  C   C47       1.0  0.7165061083649374  0.2875619465147929  0.7472762690248926  1.0000
  C   C48       1.0  0.7834938921767308  0.7875619467120403  0.7527237304094172  1.0000
  C   C49       1.0  0.6532407099298286  0.7076804011900691  0.3754543448000036  1.0000
  C   C50       1.0  0.8467592901874831  0.20768040099282173  0.12454565549259491  1.0000
  C   C51       1.0  0.3467592905276351  0.29231959886411985  0.6245456550766261  1.0000
  C   C52       1.0  0.15324071055903551  0.7923195990613674  0.8754543451453042  1.0000
  C   C53       1.0  0.5906745615103983  0.7533630040209481  0.36507160107788406  1.0000
  C   C54       1.0  0.9093254386069134  0.2533630038237006  0.1349283992147145  1.0000
  C   C55       1.0  0.4093254389470654  0.24663699603324096  0.6349283987987456  1.0000
  C   C56       1.0  0.0906745621396052  0.7466369962304884  0.8650716014231847  1.0000
  C   C57       1.0  0.19242587354958318  0.7937666786223506  0.2416256016750642  1.0000
  C   C58       1.0  0.30757412653462124  0.29376667842510307  0.25837439788261585  1.0000
  C   C59       1.0  0.8075741269078806  0.20623332143183848  0.7583743982015654  1.0000
  C   C60       1.0  0.6924258739228426  0.706233321629086  0.741625601994014  1.0000
  N   N1        1.0  0.2244265135728252  0.8374160194594708  0.2627948609032945  1.0000
  N   N2        1.0  0.2755734868004341  0.3374160196025292  0.23720513941565505  1.0000
  N   N3        1.0  0.7755734868846385  0.16258398059471826  0.7372051389733351  1.0000
  N   N4        1.0  0.7244265136570296  0.6625839804516598  0.7627948604609746  1.0000
  N   N5        1.0  0.9659467755997512  0.7857118737898723  0.16051322469612317  1.0000
  N   N6        1.0  0.5340532242285057  0.28571187359262484  0.33948677483520595  1.0000
  N   N7        1.0  0.0340532248577126  0.21428812626431673  0.8394867751805066  1.0000
  N   N8        1.0  0.46594677622895814  0.7142881264615643  0.6605132250414238  1.0000
  N   N9        1.0  0.6704373157992214  0.7293815652232774  0.05333108365738209  1.0000
  N   N10       1.0  0.8295626843180902  0.2293815653663357  0.44666891663521646  1.0000
  N   N11       1.0  0.32956268233919533  0.2706184348309118  0.9466689162259437  1.0000
  N   N12       1.0  0.17043731642842835  0.7706184346878534  0.5533310840026827  1.0000
  N   N13       1.0  0.05209549880199521  0.7063315584264418  0.17277852625343681  1.0000
  N   N14       1.0  0.4479045012822092  0.2063315582291943  0.3272214733042433  1.0000
  N   N15       1.0  0.9479044993364215  0.2936684416277473  0.8272214736298888  1.0000
  N   N16       1.0  0.5520954991752545  0.7936684418249947  0.6727785265723863  1.0000
  N   N17       1.0  0.461418761831006  0.6822709756963817  0.3050933039969011  1.0000
  N   N18       1.0  0.03858123854225335  0.18227097549913426  0.19490669632204852  1.0000
  N   N19       1.0  0.5385812386264579  0.3177290243578073  0.6949066958797286  1.0000
  N   N20       1.0  0.9614187595961634  0.8177290245550548  0.8050933035612772  1.0000
  N   N21       1.0  0.3501075360669893  0.7565317440981111  0.2856185759707448  1.0000
  N   N22       1.0  0.14989246401721512  0.2565317442411696  0.21438142358693527  1.0000
  N   N23       1.0  0.6498924643904744  0.24346825561577198  0.714381423905885  1.0000
  N   N24       1.0  0.8501075364402486  0.7434682558130195  0.7856185762896943  1.0000
  F   F1        1.0  0.948660814878444  0.9206448894504726  0.6051343782204781  1.0000
  F   F2        1.0  0.551339185952279  0.420644889253225  0.8948656219751011  1.0000
  F   F3        1.0  0.05133918557901972  0.07935511060371653  0.3948656216561515  1.0000
  F   F4        1.0  0.44866081450518475  0.579355110800964  0.10513437790152858  1.0000
  F   F5        1.0  0.7118021676095434  0.010803326282508493  0.3062300492850903  1.0000
  F   F6        1.0  0.7881978325077684  0.510803326479756  0.19376995100750832  1.0000
  F   F7        1.0  0.28819783284792033  0.9891966737716805  0.6937699505915393  1.0000
  F   F8        1.0  0.2118021679496953  0.4891966735744331  0.8062300488691213  1.0000
  F   F9        1.0  0.9241208745296515  0.5854453076413608  0.5746035059090092  1.0000
  F   F10       1.0  0.5758791239820246  0.08544530744411333  0.9253964942932661  1.0000
  F   F11       1.0  0.07587912360876531  0.4145546924128282  0.42539649397431656  1.0000
  F   F12       1.0  0.42412087415639216  0.9145546922697698  0.07460350559005963  1.0000
  F   F13       1.0  0.3124563274857041  0.48589171413262927  0.33371887384352844  1.0000
  F   F14       1.0  0.18754367259850033  0.9858917139895709  0.16628112571415166  1.0000
  F   F15       1.0  0.6875436729717597  0.5141082859215598  0.6662811260331013  1.0000
  F   F16       1.0  0.8124563278589635  0.01410828606461823  0.8337188741624781  1.0000
  I   I1        1.0  0.5697964683207798  0.9089589415889275  0.3820793288246685  1.0000
  I   I2        1.0  0.9302035317965319  0.40895894173198605  0.11792067146793012  1.0000
  I   I3        1.0  0.4302035321366839  0.09104105846526148  0.6179206710519611  1.0000
  I   I4        1.0  0.0697964686609317  0.5910410583222031  0.8820793284086995  1.0000
  I   I5        1.0  0.2765483324891128  0.5947909637016148  0.37464883139431704  1.0000
  I   I6        1.0  0.22345166788414653  0.09479096350436726  0.12535116892463258  1.0000
  I   I7        1.0  0.7234516679683508  0.40520903635257427  0.6253511684823125  1.0000
  I   I8        1.0  0.7765483328623721  0.9052090362095159  0.8746488317132667  1.0000
