data_image0
_chemical_formula_structural       H120C76N4F12Cl8I16
_chemical_formula_sum              "H120 C76 N4 F12 Cl8 I16"
_cell_length_a       11.090102523304408
_cell_length_b       20.195129566622725
_cell_length_c       12.279015473827432
_cell_angle_alpha    90.0
_cell_angle_beta     91.60351805995842
_cell_angle_gamma    90.0

_space_group_name_H-M_alt    "P 1"
_space_group_IT_number       1

loop_
  _space_group_symop_operation_xyz
  'x, y, z'

loop_
  _atom_site_type_symbol
  _atom_site_label
  _atom_site_symmetry_multiplicity
  _atom_site_fract_x
  _atom_site_fract_y
  _atom_site_fract_z
  _atom_site_occupancy
  H   H1        1.0  0.4598738794445269  0.19071993459084866  0.5079015232955818  1.0000
  H   H2        1.0  0.040126120843055946  0.6907199344268803  0.9920984767377988  1.0000
  H   H3        1.0  0.5401261207705795  0.8092800655763834  0.49209847638924603  1.0000
  H   H4        1.0  0.9598738793965188  0.3092800652451829  0.007901523761745131  1.0000
  H   H5        1.0  0.3002791366913037  0.19455000261516264  0.5168987335287966  1.0000
  H   H6        1.0  0.1997208626945529  0.6945500024511942  0.9831012665038851  1.0000
  H   H7        1.0  0.6997208635238027  0.8054499975520695  0.4831012661560313  1.0000
  H   H8        1.0  0.8002791366432958  0.30544999722086896  0.01689873399495985  1.0000
  H   H9        1.0  0.44436496227273486  0.10093306474095966  0.3716803285280873  1.0000
  H   H10       1.0  0.0556350369208578  0.6009330645769912  0.1283196709062693  1.0000
  H   H11       1.0  0.5556350370406452  0.8990669354262725  0.6283196711560414  1.0000
  H   H12       1.0  0.9443649623925223  0.3990669355902408  0.8716803287778593  1.0000
  H   H13       1.0  0.285192718953516  0.10529563442437534  0.36946987176265195  1.0000
  H   H14       1.0  0.21480728116627149  0.6052956347555758  0.13053012848712015  1.0000
  H   H15       1.0  0.7148072812615904  0.8947043652476878  0.6305301279221759  1.0000
  H   H16       1.0  0.7851927190733033  0.39470436541165627  0.869469872012424  1.0000
  H   H17       1.0  0.35652037961466465  0.014270160983581857  0.4904984728621017  1.0000
  H   H18       1.0  0.14347962048065432  0.5142701608196134  0.009501526572954028  1.0000
  H   H19       1.0  0.6434796206004417  0.9857298391836502  0.5095015268227261  1.0000
  H   H20       1.0  0.8565203797344522  0.4857298393476186  0.9904984731118739  1.0000
  H   H21       1.0  0.2860284648417906  0.07576196106851069  0.5694306541563577  1.0000
  H   H22       1.0  0.21397153542132377  0.5757619609045422  0.9305693450623066  1.0000
  H   H23       1.0  0.7139715353733158  0.9242380390987214  0.43056934552847004  1.0000
  H   H24       1.0  0.7860284647937827  0.42423803926268977  0.06943065462252111  1.0000
  H   H25       1.0  0.4454867449662719  0.07031819010198526  0.5698187212115691  1.0000
  H   H26       1.0  0.05451325532131096  0.5703181904331858  0.9301812788218118  1.0000
  H   H27       1.0  0.554513255273303  0.929681809570078  0.43018127928797506  1.0000
  H   H28       1.0  0.9454867448937954  0.42968180973404635  0.06981872086301606  1.0000
  H   H29       1.0  0.33928883188019693  0.3406234635587128  0.37014818990801784  1.0000
  H   H30       1.0  0.16071116823959047  0.8406234633947444  0.12985181034175425  1.0000
  H   H31       1.0  0.6607111683593779  0.6593765366085192  0.6298518105915263  1.0000
  H   H32       1.0  0.8392888319755158  0.1593765362773188  0.8701481893430736  1.0000
  H   H33       1.0  0.29447177553643905  0.3009327521247655  0.490632747092928  1.0000
  H   H34       1.0  0.20552822458334838  0.8009327519607972  0.009367253156844066  1.0000
  H   H35       1.0  0.7055282247031358  0.6990672480424666  0.5093672534066161  1.0000
  H   H36       1.0  0.7944717747300317  0.19906724820643498  0.9906327465272845  1.0000
  H   H37       1.0  0.5543280025209256  0.3329443224327104  0.4293141909813393  1.0000
  H   H38       1.0  0.9456719976217043  0.832944322268742  0.0706858083549355  1.0000
  H   H39       1.0  0.44567199769418087  0.6670556777345217  0.5706858087034885  1.0000
  H   H40       1.0  0.05432800259340202  0.1670556774033212  0.9293141913298923  1.0000
  H   H41       1.0  0.5179603988240913  0.28614387498412996  0.5442948679462584  1.0000
  H   H42       1.0  0.9820396015352709  0.7861438753153304  0.9557051328030578  1.0000
  H   H43       1.0  0.4820396014154835  0.7138561246879332  0.45570513255328576  1.0000
  H   H44       1.0  0.0179603987043039  0.2138561248519016  0.04429486769648628  1.0000
  H   H45       1.0  0.5498153207202215  0.40581434761106844  0.5908657123215064  1.0000
  H   H46       1.0  0.9501846796146722  0.9058143474471001  0.9091342876130935  1.0000
  H   H47       1.0  0.4501846794948847  0.5941856525561637  0.40913428736332136  1.0000
  H   H48       1.0  0.049815320600434185  0.0941856527201321  0.09086571207173438  1.0000
  H   H49       1.0  0.3994197820364346  0.3823318302825447  0.6172189304117375  1.0000
  H   H50       1.0  0.10058021825114828  0.8823318301185763  0.8827810696216434  1.0000
  H   H51       1.0  0.6005802181786718  0.6176681698846874  0.38278106927309036  1.0000
  H   H52       1.0  0.8994197819884264  0.11766817004865582  0.11721893087790074  1.0000
  H   H53       1.0  0.4308258481112832  0.42878829974489413  0.49922960634126917  1.0000
  H   H54       1.0  0.06917415200850421  0.9287882995809257  0.0007703939085028538  1.0000
  H   H55       1.0  0.5691741512020969  0.5712117004223379  0.5007703933428593  1.0000
  H   H56       1.0  0.9308258482310707  0.07121170009113743  0.9992296065910412  1.0000
  H   H57       1.0  0.26072377053726303  0.273028429048207  0.24493519740313505  1.0000
  H   H58       1.0  0.23927622868079818  0.7730284293794074  0.25506480284593785  1.0000
  H   H59       1.0  0.7392762288005856  0.7269715706238562  0.7550648030957098  1.0000
  H   H60       1.0  0.7607237706570505  0.2269715707878246  0.7449351976529069  1.0000
  H   H61       1.0  0.2682612857425184  0.18575554356432622  0.2549748400864576  1.0000
  H   H62       1.0  0.23173871437726906  0.6857555438955267  0.24502516016331444  1.0000
  H   H63       1.0  0.7317387135708618  0.8142444561077369  0.745025159597671  1.0000
  H   H64       1.0  0.7682612858623058  0.3142444562717054  0.7549748403362296  1.0000
  H   H65       1.0  0.12600041281425803  0.2773341503714172  0.4059574793991201  1.0000
  H   H66       1.0  0.3739995873055294  0.7773341502074488  0.09404252085065201  1.0000
  H   H67       1.0  0.8739995874008485  0.7226658497958148  0.5940425202857077  1.0000
  H   H68       1.0  0.6260004129340454  0.22266584946461443  0.9059574796488922  1.0000
  H   H69       1.0  0.133140441889164  0.18997657417068023  0.41725826675674027  1.0000
  H   H70       1.0  0.36685955823062344  0.6899765740067119  0.08274173349303177  1.0000
  H   H71       1.0  0.866859558350411  0.8100234259965519  0.5827417337428038  1.0000
  H   H72       1.0  0.633140441984483  0.31002342566535135  0.9172582661917961  1.0000
  H   H73       1.0  0.9479854257931822  0.22405111713064796  0.31266503833744613  1.0000
  H   H74       1.0  0.5520145743739162  0.7240511174618485  0.187334961813545  1.0000
  H   H75       1.0  0.05201457442192426  0.7759488825414153  0.6873349613473817  1.0000
  H   H76       1.0  0.44798542586565865  0.27594888270538365  0.812665038685999  1.0000
  H   H77       1.0  0.044943856905701685  0.17921606385639358  0.22720985377094458  1.0000
  H   H78       1.0  0.4550561432140858  0.6792160641875941  0.27279014647882743  1.0000
  H   H79       1.0  0.955056142432147  0.8207839358156696  0.7727901467279004  1.0000
  H   H80       1.0  0.5449438570010207  0.320783935979638  0.7272098532060004  1.0000
  H   H81       1.0  0.03676559199594684  0.26715119762919365  0.217256327178503  1.0000
  H   H82       1.0  0.4632344080993721  0.7671511974652253  0.2827436722565528  1.0000
  H   H83       1.0  0.9632344082191596  0.7328488025380384  0.7827436725063247  1.0000
  H   H84       1.0  0.5367655921157343  0.23284880220683793  0.7172563274282749  1.0000
  H   H85       1.0  0.4715334888125634  0.1827130842526737  0.2644953922737649  1.0000
  H   H86       1.0  0.028466510405497743  0.6827130845838741  0.235504607975308  1.0000
  H   H87       1.0  0.5284665105008167  0.8172869154193896  0.7355046074103638  1.0000
  H   H88       1.0  0.971533488932351  0.31728691558335786  0.7644953925235369  1.0000
  H   H89       1.0  0.557860749988493  0.2268926824600848  0.3635132156559702  1.0000
  H   H90       1.0  0.9421392501786053  0.7268926822961164  0.1364867844950209  1.0000
  H   H91       1.0  0.4421392502266133  0.7731073177071472  0.6364867840288576  1.0000
  H   H92       1.0  0.057860749159243274  0.2731073173759468  0.863513216003824  1.0000
  H   H93       1.0  0.42450990202806627  0.2862629735020209  0.16210560097565477  1.0000
  H   H94       1.0  0.0754900980917212  0.7862629733380524  0.33789439927411735  1.0000
  H   H95       1.0  0.5754900982115086  0.7137370266652112  0.8378943995238893  1.0000
  H   H96       1.0  0.9245099021233851  0.21373702682917958  0.6621056004107105  1.0000
  H   H97       1.0  0.4978704689078064  0.33423523071403616  0.263928970671492  1.0000
  H   H98       1.0  0.0021295312119810066  0.8342352310452367  0.23607102957828005  1.0000
  H   H99       1.0  0.5021295313073  0.665764768958027  0.7360710290133358  1.0000
  H   H100      1.0  0.9978704690275939  0.16576476912199545  0.7639289709212641  1.0000
  H   H101      1.0  0.631284601213676  0.3155286822487877  0.10880139601062544  1.0000
  H   H102      1.0  0.8687153989534223  0.8155286820848193  0.3911986041403657  1.0000
  H   H103      1.0  0.3687153990014303  0.6844713179184444  0.8911986036742023  1.0000
  H   H104      1.0  0.13128460128615255  0.1844713175872439  0.6088013963591784  1.0000
  H   H105      1.0  0.6207639270615044  0.22827307617868087  0.12564591799863314  1.0000
  H   H106      1.0  0.8792360722038677  0.7282730765098814  0.37435408215165883  1.0000
  H   H107      1.0  0.3792360722763442  0.7717269234933823  0.8743540825002117  1.0000
  H   H108      1.0  0.12076392710951245  0.27172692365735074  0.6256459175324698  1.0000
  H   H109      1.0  0.6943544081149085  0.2775144641440021  0.22774917110526716  1.0000
  H   H110      1.0  0.80564559205219  0.7775144639800338  0.272250829045724  1.0000
  H   H111      1.0  0.30564559212466647  0.72248553602323  0.772250829394277  1.0000
  H   H112      1.0  0.1943544081629164  0.22248553569202947  0.7277491706391038  1.0000
  H   H113      1.0  0.5838621641122563  0.4654319626418664  0.12279032254841747  1.0000
  H   H114      1.0  0.916137836054842  0.965431962477898  0.3772096776025737  1.0000
  H   H115      1.0  0.41613783610285004  0.5345680375253657  0.8772096771364104  1.0000
  H   H116      1.0  0.08386216418473282  0.03456803768933411  0.6227903228969704  1.0000
  H   H117      1.0  0.42652974792075243  0.4400576461112646  0.1266491090463198  1.0000
  H   H118      1.0  0.07347025219903508  0.9400576459472962  0.3733508912034523  1.0000
  H   H119      1.0  0.573470252294354  0.5599423540559675  0.873350890638508  1.0000
  H   H120      1.0  0.9265297480405398  0.0599423542199359  0.6266491092960917  1.0000
  C   C1        1.0  0.8328414325793158  0.4115149052440468  0.48004967248328284  1.0000
  C   C2        1.0  0.6671585666860563  0.9115149055752474  0.019950327667009122  1.0000
  C   C3        1.0  0.16715856673406435  0.5884850944280163  0.5199503272008458  1.0000
  C   C4        1.0  0.3328414326517923  0.08848509459198475  0.9800496728318359  1.0000
  C   C5        1.0  0.8252969953230301  0.4468825842502007  0.3825310304544247  1.0000
  C   C6        1.0  0.6747030048440683  0.9468825840862324  0.11746896969656642  1.0000
  C   C7        1.0  0.1747030040148185  0.5531174159170313  0.6174689700444203  1.0000
  C   C8        1.0  0.3252969953710381  0.05311741558583088  0.8825310299882613  1.0000
  C   C9        1.0  0.8319862549813722  0.5159179601016245  0.378772027187521  1.0000
  C   C10       1.0  0.6680137451857261  0.015917960265592855  0.12122797296347013  1.0000
  C   C11       1.0  0.16801374525820256  0.4840820400656077  0.6212279733120231  1.0000
  C   C12       1.0  0.3319862550293803  0.9840820399016393  0.8787720267213577  1.0000
  C   C13       1.0  0.846191542796376  0.5492011929614375  0.47798715367295197  1.0000
  C   C14       1.0  0.6538084573707225  0.049201193125405926  0.022012846478039177  1.0000
  C   C15       1.0  0.15380845741873045  0.45079880720579457  0.5220128460118758  1.0000
  C   C16       1.0  0.34619154196712615  0.9507988070418261  0.9779871540208057  1.0000
  C   C17       1.0  0.8501272933701554  0.517002878122463  0.5786478946066906  1.0000
  C   C18       1.0  0.6498727069647385  0.017002878286431482  0.9213521053279092  1.0000
  C   C19       1.0  0.14987270686941956  0.48299712204476897  0.42135210589285343  1.0000
  C   C20       1.0  0.35012729325036784  0.9829971218808007  0.07864789435691859  1.0000
  C   C21       1.0  0.8444794959223565  0.44802277005213076  0.5760939894291567  1.0000
  C   C22       1.0  0.6555205044125374  0.9480227698881624  0.9239060105054432  1.0000
  C   C23       1.0  0.15552050429274994  0.5519772301151014  0.4239060102556711  1.0000
  C   C24       1.0  0.3444794958270375  0.051977230279069773  0.07609398999410091  1.0000
  C   C25       1.0  0.3742751418732295  0.1836717985771413  0.46226911072270704  1.0000
  C   C26       1.0  0.12572485734483171  0.6836717984131729  0.03773088952636585  1.0000
  C   C27       1.0  0.6257248574401506  0.8163282015900909  0.5377308889614216  1.0000
  C   C28       1.0  0.874275141993017  0.31632820125889033  0.962269110972479  1.0000
  C   C29       1.0  0.3663433312719391  0.11292579245290682  0.42114957762057853  1.0000
  C   C30       1.0  0.1336566679461221  0.6129257922889384  0.0788504226284943  1.0000
  C   C31       1.0  0.6336566680659096  0.8870742077143252  0.5788504228782664  1.0000
  C   C32       1.0  0.866343331367258  0.38707420787829366  0.9211495770556343  1.0000
  C   C33       1.0  0.36353824692936754  0.06580483802373747  0.5180530840306509  1.0000
  C   C34       1.0  0.13646175335821534  0.5658048378597691  0.9819469160027298  1.0000
  C   C35       1.0  0.6364617533102074  0.9341951621434947  0.4819469164688932  1.0000
  C   C36       1.0  0.863538246856891  0.434195162307463  0.01805308368209793  1.0000
  C   C37       1.0  0.3669862654501352  0.3041197849084707  0.4321575378798809  1.0000
  C   C38       1.0  0.1330137346696523  0.8041197847445023  0.06784246236989114  1.0000
  C   C39       1.0  0.6330137347894398  0.6958802152587614  0.5678424626196632  1.0000
  C   C40       1.0  0.8669862655454542  0.19588021492756091  0.9321575373149366  1.0000
  C   C41       1.0  0.4839204658576313  0.3250000787738256  0.48892828615547085  1.0000
  C   C42       1.0  0.01607953423768765  0.8250000786098571  0.011071713279584939  1.0000
  C   C43       1.0  0.5160795343574751  0.6749999213934065  0.511071713529357  1.0000
  C   C44       1.0  0.9839204659774188  0.17499992155737493  0.9889282864052429  1.0000
  C   C45       1.0  0.4648089536773407  0.3888356771415953  0.5525415116655233  1.0000
  C   C46       1.0  0.035191046610242145  0.8888356769776269  0.9474584883678574  1.0000
  C   C47       1.0  0.5351910465622343  0.6111643230256368  0.4474584888340208  1.0000
  C   C48       1.0  0.9648089536048643  0.11116432269443628  0.05254151131697038  1.0000
  C   C49       1.0  0.2575082498854376  0.2313283063913147  0.3021824097670289  1.0000
  C   C50       1.0  0.24249175020988137  0.7313283062273462  0.19781758966802684  1.0000
  C   C51       1.0  0.7424917503296689  0.7686716937759174  0.6978175899177989  1.0000
  C   C52       1.0  0.757508250005225  0.2686716934447169  0.802182410016801  1.0000
  C   C53       1.0  0.13781561900915262  0.23143433492621146  0.35946955866586566  1.0000
  C   C54       1.0  0.3621843801844401  0.7314343347622431  0.14053044076849094  1.0000
  C   C55       1.0  0.8621843803042275  0.7685656652410207  0.6405304410182631  1.0000
  C   C56       1.0  0.63781561912894  0.26856566540498905  0.8594695589156377  1.0000
  C   C57       1.0  0.03584779128095567  0.2250864860759682  0.274030667088536  1.0000
  C   C58       1.0  0.4641522088388318  0.7250864859119999  0.22596933316123605  1.0000
  C   C59       1.0  0.964152208056893  0.774913514091264  0.7259693334103089  1.0000
  C   C60       1.0  0.5358477913762747  0.2749135137600634  0.7740306665235916  1.0000
  C   C61       1.0  0.4803459771579074  0.23057417357182683  0.306079790990945  1.0000
  C   C62       1.0  0.019654022937411603  0.7305741734078585  0.1939202084441108  1.0000
  C   C63       1.0  0.5196540230571991  0.7694258265954053  0.6939202086938828  1.0000
  C   C64       1.0  0.9803459772776948  0.26942582675937365  0.806079791240717  1.0000
  C   C65       1.0  0.49803472193135234  0.2856415152460292  0.22397730726327156  1.0000
  C   C66       1.0  0.0019652781884350796  0.7856415155772296  0.2760226929865005  1.0000
  C   C67       1.0  0.501965278283754  0.714358484426034  0.7760226924215563  1.0000
  C   C68       1.0  0.9980347220511399  0.21435848459000242  0.7239773075130437  1.0000
  C   C69       1.0  0.6182310461115451  0.2759517423057546  0.1685244814493769  1.0000
  C   C70       1.0  0.8817689540555533  0.7759517421417862  0.33147551870161424  1.0000
  C   C71       1.0  0.3817689541035613  0.7240482578614775  0.831475518235451  1.0000
  C   C72       1.0  0.1182310461595531  0.22404825802544592  0.6685244809832136  1.0000
  C   C73       1.0  0.49579746234535  0.4744650559626193  0.15751879418085651  1.0000
  C   C74       1.0  0.004202537774437473  0.9744650557986508  0.3424812060689155  1.0000
  C   C75       1.0  0.504202537894225  0.5255349442046128  0.8424812063186877  1.0000
  C   C76       1.0  0.9957974624406689  0.02553494387341227  0.6575187936159124  1.0000
  N   N1        1.0  0.36967769709052967  0.23737658994389338  0.37539067854931113  1.0000
  N   N2        1.0  0.13032230302925774  0.7373765897799249  0.1246093217004609  1.0000
  N   N3        1.0  0.6303223031490452  0.7626234102233387  0.624609321950233  1.0000
  N   N4        1.0  0.869677697210317  0.2626234098921382  0.8753906787990833  1.0000
  F   F1        1.0  0.8098118373738671  0.4126443176563196  0.2881163163421146  1.0000
  F   F2        1.0  0.6901881627687629  0.9126443174923512  0.21188368299416022  1.0000
  F   F3        1.0  0.19018816284123946  0.5873556825109125  0.7118836833427132  1.0000
  F   F4        1.0  0.3098118374463434  0.08735568217971201  0.7881163166906676  1.0000
  F   F5        1.0  0.8554585077459002  0.6164646940703916  0.47640206289163234  1.0000
  F   F6        1.0  0.6445414924211983  0.11646469423436004  0.023597937259358787  1.0000
  F   F7        1.0  0.14454149246920628  0.38353530609684044  0.5235979367931954  1.0000
  F   F8        1.0  0.35545850781837657  0.8835353059328721  0.9764020632401853  1.0000
  F   F9        1.0  0.8489572082423601  0.41463750912692676  0.6723177949537119  1.0000
  F   F10       1.0  0.6510427912152761  0.9146375089629584  0.8276822057949048  1.0000
  F   F11       1.0  0.15104279199721485  0.5853624910403052  0.3276822055458321  1.0000
  F   F12       1.0  0.3489572081225726  0.0853624912042737  0.17231779470393999  1.0000
  Cl  Cl1       1.0  0.5110770630759186  0.4647035325542322  0.30087148321561136  1.0000
  Cl  Cl2       1.0  0.9889229361894537  0.9647035323902639  0.1991285169346806  1.0000
  Cl  Cl3       1.0  0.48892293626193  0.535296467613  0.6991285172832334  1.0000
  Cl  Cl4       1.0  0.01107706312392656  0.035296467776968356  0.8008714827494481  1.0000
  Cl  Cl5       1.0  0.4511979405285775  0.5559224338206363  0.1204236473611576  1.0000
  Cl  Cl6       1.0  0.048802059591209944  0.05592243348943591  0.3795763528886144  1.0000
  Cl  Cl7       1.0  0.5488020597109974  0.4440775663465957  0.8795763531383864  1.0000
  Cl  Cl8       1.0  0.9511979397466386  0.9440775661826272  0.6204236476102305  1.0000
  I   I1        1.0  0.7261791033674949  0.1440993775454476  0.5211306518170845  1.0000
  I   I2        1.0  0.7738208960656726  0.6440993773814793  0.9788693481168161  1.0000
  I   I3        1.0  0.2738208968720799  0.8559006226217846  0.4788693486824596  1.0000
  I   I4        1.0  0.22617910324770754  0.355900622290584  0.021130651567312458  1.0000
  I   I5        1.0  0.814218204765228  0.30709695124957553  0.4863859054938632  1.0000
  I   I6        1.0  0.6857817945001442  0.807096951580776  0.013614094656428755  1.0000
  I   I7        1.0  0.18578179454815222  0.6929030484224877  0.5136140941902655  1.0000
  I   I8        1.0  0.3142182048132359  0.1929030485864561  0.9863859050276998  1.0000
  I   I9        1.0  0.8121862144349336  0.5676557009540953  0.2287544588931109  1.0000
  I   I10       1.0  0.6878137857321649  0.06765570062289489  0.2712455412578802  1.0000
  I   I11       1.0  0.18781378580464128  0.43234429921313666  0.7712455416064331  1.0000
  I   I12       1.0  0.31218621448294154  0.9323442990491684  0.7287544584269476  1.0000
  I   I13       1.0  0.8481666618418443  0.5677820804354243  0.7299395024447732  1.0000
  I   I14       1.0  0.6518333384930496  0.06778208059939268  0.7700604974898266  1.0000
  I   I15       1.0  0.1518333383977305  0.4322179192366389  0.27006049805477084  1.0000
  I   I16       1.0  0.3481666617220569  0.9322179190726705  0.22993950219500117  1.0000
