data_image0
_chemical_formula_structural       H60C48N4O16
_chemical_formula_sum              "H60 C48 N4 O16"
_cell_length_a       9.115734211569906
_cell_length_b       10.561471520593438
_cell_length_c       12.611913972431223
_cell_angle_alpha    81.16827125386361
_cell_angle_beta     88.92081863986826
_cell_angle_gamma    85.81129160419964

_space_group_name_H-M_alt    "P 1"
_space_group_IT_number       1

loop_
  _space_group_symop_operation_xyz
  'x, y, z'

loop_
  _atom_site_type_symbol
  _atom_site_label
  _atom_site_symmetry_multiplicity
  _atom_site_fract_x
  _atom_site_fract_y
  _atom_site_fract_z
  _atom_site_occupancy
  H   H1        1.0  0.8936840126555747  0.7465296313775475  0.09996218960065417  1.0000
  H   H2        1.0  0.10631598734678371  0.2534703686940057  0.9000378100285296  1.0000
  H   H3        1.0  0.8662987256495752  0.588858689489336  0.14317462529107391  1.0000
  H   H4        1.0  0.13370127435278337  0.4111413105822173  0.8568253743381097  1.0000
  H   H5        1.0  0.7242574881748128  0.691656401913867  0.0953845700237012  1.0000
  H   H6        1.0  0.2757425118275458  0.30834359815768614  0.9046154296054824  1.0000
  H   H7        1.0  0.7036945346828117  0.6517373676139195  0.2862222463013994  1.0000
  H   H8        1.0  0.29630546531954693  0.3482626324576335  0.7137777533277841  1.0000
  H   H9        1.0  0.731647312127491  0.8143125845915582  0.23865648460688085  1.0000
  H   H10       1.0  0.26835268787504035  0.1856874154792154  0.7613435158153014  1.0000
  H   H11       1.0  0.9724133098655737  0.6078281714107361  0.32705663401656515  1.0000
  H   H12       1.0  0.027586690136957585  0.3921718286600374  0.6729433664056172  1.0000
  H   H13       1.0  0.005865113486614705  0.7666930308581553  0.26916628430398576  1.0000
  H   H14       1.0  0.9941348865159165  0.23330696921261843  0.7308337161181966  1.0000
  H   H15       1.0  0.8962906778410532  0.5618365227544385  0.5117388346262257  1.0000
  H   H16       1.0  0.1037093221613053  0.4381634773171145  0.4882611650029579  1.0000
  H   H17       1.0  0.8233435011723459  0.028911889406076443  0.52883336037784  1.0000
  H   H18       1.0  0.17665649883018555  0.9710881106646972  0.4711666400443422  1.0000
  H   H19       1.0  0.88412060370112  0.9537074721413267  0.3549137249431518  1.0000
  H   H20       1.0  0.1158793963014114  0.04629252792944694  0.6450862754790304  1.0000
  H   H21       1.0  0.838549174001649  0.6365506808906383  0.6860246121108748  1.0000
  H   H22       1.0  0.16145082600088234  0.3634493191801354  0.31397538831130745  1.0000
  H   H23       1.0  0.8001993774245693  0.8698628152476876  0.6952970448559457  1.0000
  H   H24       1.0  0.1998006225779622  0.13013718482308612  0.3047029555662365  1.0000
  H   H25       1.0  0.6206036501702441  0.3941621330600352  0.16064877284744183  1.0000
  H   H26       1.0  0.3793963498321143  0.605837867011518  0.8393512267817418  1.0000
  H   H27       1.0  0.5848940169789782  0.2364166285003015  0.1678271482552889  1.0000
  H   H28       1.0  0.41510598302338025  0.7635833715712517  0.8321728513738946  1.0000
  H   H29       1.0  0.7575218554346588  0.28162728532869585  0.1455345910570196  1.0000
  H   H30       1.0  0.24247814456787256  0.7183727147420779  0.8544654093651628  1.0000
  H   H31       1.0  0.7792273541482618  0.3358782031832068  0.31941012681293546  1.0000
  H   H32       1.0  0.2207726458542696  0.6641217968875668  0.6805898736092467  1.0000
  H   H33       1.0  0.7253909235860764  0.1766094291108893  0.3292686513607966  1.0000
  H   H34       1.0  0.27460907641628224  0.8233905709606637  0.670731348268387  1.0000
  H   H35       1.0  0.5146748557060922  0.41593330724722605  0.33843293456935936  1.0000
  H   H36       1.0  0.4853251442962664  0.5840666928243271  0.6615670650598242  1.0000
  H   H37       1.0  0.4597520791036149  0.2573073377934989  0.34522458827439717  1.0000
  H   H38       1.0  0.5402479208989166  0.7426926622772747  0.6547754121477851  1.0000
  H   H39       1.0  0.6705533610059846  0.47098642489682796  0.4866369711558126  1.0000
  H   H40       1.0  0.3294466389965467  0.5290135751739458  0.5133630292663697  1.0000
  H   H41       1.0  0.7303098062907907  0.4250887018949052  0.6807156771642462  1.0000
  H   H42       1.0  0.2696901937117409  0.5749112981758684  0.3192843232579361  1.0000
  H   H43       1.0  0.6680617822037851  0.21877915273156204  0.7891065273636627  1.0000
  H   H44       1.0  0.3319382177985735  0.781220847339991  0.21089347226552105  1.0000
  H   H45       1.0  0.5440715699796033  0.05814253677233639  0.7031675774847744  1.0000
  H   H46       1.0  0.4559284300964956  0.9418574623378225  0.2968324230592713  1.0000
  H   H47       1.0  0.4820430704121078  0.1063250279531216  0.5088183579777907  1.0000
  H   H48       1.0  0.5179569295904237  0.893674972117652  0.4911816424443916  1.0000
  H   H49       1.0  0.12964035522220368  0.6088506274486538  0.08968129538526878  1.0000
  H   H50       1.0  0.8703596447801548  0.39114937262289917  0.9103187042439148  1.0000
  H   H51       1.0  0.3562963723015643  0.37611978774667887  0.11903705125704803  1.0000
  H   H52       1.0  0.6437036277009671  0.6238802123240949  0.8809629491651343  1.0000
  H   H53       1.0  0.9995383116634564  0.21748582636681696  0.09915747076352202  1.0000
  H   H54       1.0  0.0004616883389022054  0.7825141737047363  0.9008425288656616  1.0000
  H   H55       1.0  0.4821999717867531  0.767377126932509  0.030480777535558903  1.0000
  H   H56       1.0  0.5178000282156053  0.2326228731390441  0.9695192220936247  1.0000
  H   H57       1.0  0.7827024036841473  0.0038515178416707865  0.8457000807906236  1.0000
  H   H58       1.0  0.21729759631838408  0.9961484822291029  0.15429991963155862  1.0000
  H   H59       1.0  0.7126647087732177  0.0006449073441429409  0.08631112290366182  1.0000
  H   H60       1.0  0.2873352912293136  0.9993550927266308  0.9136888775185206  1.0000
  C   C1        1.0  0.7847434321531621  0.7167623164234458  0.24830023208714289  1.0000
  C   C2        1.0  0.21525656784936928  0.2832376836473279  0.7516997683350394  1.0000
  C   C3        1.0  0.8933063296627118  0.7523500875991708  0.42127797828703173  1.0000
  C   C4        1.0  0.10669367033981958  0.247649912471603  0.5787220221351506  1.0000
  C   C5        1.0  0.9245834111823634  0.7076679703159209  0.31482862735637573  1.0000
  C   C6        1.0  0.07541658881999497  0.2923320297556323  0.6851713722728079  1.0000
  C   C7        1.0  0.8804778434938055  0.6643999239670626  0.5155018526820283  1.0000
  C   C8        1.0  0.119522156508553  0.33560007610449055  0.4844981469471554  1.0000
  C   C9        1.0  0.8389693456592017  0.92638856799601  0.525221146223318  1.0000
  C   C10       1.0  0.16103065434332978  0.07361143207476369  0.47477885419886434  1.0000
  C   C11       1.0  0.872329747147657  0.8838752752359659  0.4274802981575086  1.0000
  C   C12       1.0  0.12767025285470168  0.11612472483558732  0.572519701471675  1.0000
  C   C13       1.0  0.8481964040704953  0.7064040861384819  0.6135282970628634  1.0000
  C   C14       1.0  0.15180359593203588  0.29359591393229173  0.38647170335931885  1.0000
  C   C15       1.0  0.8269461744692724  0.8376089496658874  0.6187660005342132  1.0000
  C   C16       1.0  0.1730538255330861  0.1623910504056658  0.3812339990949704  1.0000
  C   C17       1.0  0.6886708046621789  0.2779841038233556  0.3046170583281025  1.0000
  C   C18       1.0  0.3113291954137472  0.7220158952875829  0.6953829414229445  1.0000
  C   C19       1.0  0.5488843486482602  0.31407495140944613  0.36528926512671284  1.0000
  C   C20       1.0  0.45111565135427123  0.6859250486613274  0.6347107352954694  1.0000
  C   C21       1.0  0.5750394194552901  0.29028066279581577  0.4843400076269692  1.0000
  C   C22       1.0  0.42496058054724134  0.7097193372749578  0.5156599927952131  1.0000
  C   C23       1.0  0.6440023643048837  0.379919005113149  0.5338822373737154  1.0000
  C   C24       1.0  0.3559976356974749  0.6200809949584041  0.46611776225546814  1.0000
  C   C25       1.0  0.6770593981377181  0.35435880855726515  0.6429771887711203  1.0000
  C   C26       1.0  0.3229406018648132  0.6456411915135085  0.3570228116510621  1.0000
  C   C27       1.0  0.6418526340425822  0.23836218142747514  0.7040347820410805  1.0000
  C   C28       1.0  0.3581473659599492  0.7616378186432985  0.2959652183811019  1.0000
  C   C29       1.0  0.5718114062203336  0.1488147378291431  0.6557587208373873  1.0000
  C   C30       1.0  0.4281885938555925  0.8511852612817954  0.34424127891365974  1.0000
  C   C31       1.0  0.5383868734515148  0.17523064092173052  0.5465846359932559  1.0000
  C   C32       1.0  0.46161312655101655  0.824769359149043  0.4534153644289263  1.0000
  C   C33       1.0  0.06136262855318973  0.40861922764354797  0.11588417390421582  1.0000
  C   C34       1.0  0.9386373714491688  0.5913807724280051  0.8841158257249677  1.0000
  C   C35       1.0  0.1704137637737614  0.5080054729858172  0.10149967855064837  1.0000
  C   C36       1.0  0.8295862362287699  0.4919945270849564  0.8985003218715341  1.0000
  C   C37       1.0  0.3155652197070534  0.4768677870237349  0.10433116358872024  1.0000
  C   C38       1.0  0.6844347803688727  0.5231322120872036  0.8956688361623267  1.0000
  C   C39       1.0  0.42473131684008897  0.5756944916148838  0.08958976333506588  1.0000
  C   C40       1.0  0.5752686831622695  0.4243055084566695  0.9104102362941177  1.0000
  C   C41       1.0  0.6104950931973531  0.888268692544596  0.9285154457858339  1.0000
  C   C42       1.0  0.38950490680517835  0.11173130752617758  0.07148455463634833  1.0000
  C   C43       1.0  0.7298187335625178  0.9772254830229421  0.9233407640608381  1.0000
  C   C44       1.0  0.2701812664398408  0.022774517048610967  0.0766592355683455  1.0000
  C   C45       1.0  0.7683140586946862  0.026481067602722494  0.009686566916838233  1.0000
  C   C46       1.0  0.2316859413076724  0.9735189324688307  0.9903134327123455  1.0000
  C   C47       1.0  0.8850692677928035  0.11722911999756828  0.007089839498638193  1.0000
  C   C48       1.0  0.11493073220955498  0.8827708800739847  0.9929101601305454  1.0000
  N   N1        1.0  0.819200733837765  0.6843560523063721  0.13960479796234604  1.0000
  N   N2        1.0  0.1807992661645936  0.315643947765181  0.8603952016668375  1.0000
  N   N3        1.0  0.6616080455923956  0.29849325572934615  0.18731231150059638  1.0000
  N   N4        1.0  0.338391954409963  0.701506744342207  0.8126876881285873  1.0000
  O   O1        1.0  0.9308237042269011  0.43844242291331115  0.14392825013931385  1.0000
  O   O2        1.0  0.06917629577545739  0.561557577158242  0.8560717494898696  1.0000
  O   O3        1.0  0.10751680218438388  0.2958429412756438  0.09774543442075286  1.0000
  O   O4        1.0  0.8924831978179746  0.7041570587959094  0.9022545652084307  1.0000
  O   O5        1.0  0.3787196504389855  0.6881980602511014  0.04222070944307206  1.0000
  O   O6        1.0  0.6212803495635458  0.31180193981967236  0.9577792909791102  1.0000
  O   O7        1.0  0.5550550208584673  0.5467244877189268  0.12202669052330346  1.0000
  O   O8        1.0  0.4449449791440641  0.4532755123518469  0.8779733098988787  1.0000
  O   O9        1.0  0.5741870936288904  0.8357993805464033  0.02547340502099413  1.0000
  O   O10       1.0  0.42581290637364094  0.16420061952437046  0.9745265954011881  1.0000
  O   O11       1.0  0.5510035755875828  0.8689445882944907  0.8443834032050354  1.0000
  O   O12       1.0  0.4489964244149485  0.13105541177628297  0.15561659721714682  1.0000
  O   O13       1.0  0.9082704620008173  0.1512132726886934  0.10124979569896131  1.0000
  O   O14       1.0  0.09172953800154138  0.8487867273828597  0.8987502039302222  1.0000
  O   O15       1.0  0.9546424372696135  0.15472877115077663  0.9235570923795248  1.0000
  O   O16       1.0  0.04535756273274505  0.8452712289207766  0.07644290724965884  1.0000
