data_image0
_chemical_formula_structural       H28C30N6F26P4
_chemical_formula_sum              "H28 C30 N6 F26 P4"
_cell_length_a       9.31757350540285
_cell_length_b       10.326795743156461
_cell_length_c       11.716317696293503
_cell_angle_alpha    66.36923016876908
_cell_angle_beta     88.03858570413668
_cell_angle_gamma    69.35671550866452

_space_group_name_H-M_alt    "P 1"
_space_group_IT_number       1

loop_
  _space_group_symop_operation_xyz
  'x, y, z'

loop_
  _atom_site_type_symbol
  _atom_site_label
  _atom_site_symmetry_multiplicity
  _atom_site_fract_x
  _atom_site_fract_y
  _atom_site_fract_z
  _atom_site_occupancy
  H   H1        1.0  0.28378861932548166  0.029757438443100546  0.7539411546454005  1.0000
  H   H2        1.0  0.7162113810752213  0.9702425613944903  0.24605884548763748  1.0000
  H   H3        1.0  0.19952719695422147  0.21225474156221752  0.7367062619831188  1.0000
  H   H4        1.0  0.8004728034464814  0.7877452582753733  0.2632937381499191  1.0000
  H   H5        1.0  0.013350811302988428  0.29298430467681724  0.6719538224363465  1.0000
  H   H6        1.0  0.98664918803745  0.7070156951273501  0.3280461777094188  1.0000
  H   H7        1.0  0.3867901768473859  0.7912042446193863  0.7631203159393696  1.0000
  H   H8        1.0  0.6132098233967116  0.20879575568555847  0.23687968325478234  1.0000
  H   H9        1.0  0.6689142412318845  0.6261224645803534  0.8461901805294136  1.0000
  H   H10       1.0  0.33108575810855384  0.37387753522381395  0.15380981961635157  1.0000
  H   H11       1.0  0.8315432972930744  0.7383737696913718  0.9126945671296759  1.0000
  H   H12       1.0  0.16845670310762878  0.2616262301462188  0.08730543300336203  1.0000
  H   H13       1.0  0.7165824141530283  0.9998509981534516  0.8966619943115777  1.0000
  H   H14       1.0  0.2834175862476748  0.00014900168413921347  0.10333800582146029  1.0000
  H   H15       1.0  0.6100845718383473  0.21325242045914006  0.8833029654853555  1.0000
  H   H16       1.0  0.38991542856235545  0.7867475793784509  0.11669703464768245  1.0000
  H   H17       1.0  0.46836802237608627  0.4754590807753032  0.8589531135173505  1.0000
  H   H18       1.0  0.5316319780246169  0.5245409190622875  0.14104688661568754  1.0000
  H   H19       1.0  0.19256384967083792  0.6101325417649578  0.7683377616442862  1.0000
  H   H20       1.0  0.8074361496696005  0.38986745803920936  0.2316622385014789  1.0000
  H   H21       1.0  0.9788743552439525  0.7177642435271104  0.6705074619364141  1.0000
  H   H22       1.0  0.021125645156750285  0.2822357563104804  0.3294925381966237  1.0000
  H   H23       1.0  0.7182582542516167  0.8334967619402229  0.5544672821556728  1.0000
  H   H24       1.0  0.28174174508882177  0.16650323786394422  0.4455327179900926  1.0000
  H   H25       1.0  0.6079643979451828  0.6730565983184926  0.49936245770107185  1.0000
  H   H26       1.0  0.39203560245552027  0.32694340151909806  0.5006375424319661  1.0000
  H   H27       1.0  0.7714840301702549  0.39353288503677025  0.5687870101382598  1.0000
  H   H28       1.0  0.22851596917018346  0.6064671147673969  0.43121299000750535  1.0000
  C   C1        1.0  0.465567783535506  0.8290249978248464  0.7955901362338045  1.0000
  C   C2        1.0  0.5344322168651968  0.17097500201274443  0.20440986389923352  1.0000
  C   C3        1.0  0.6201267843629595  0.7411262179864606  0.8405363107398564  1.0000
  C   C4        1.0  0.3798732160377433  0.2588737818511301  0.15946368939318167  1.0000
  C   C5        1.0  0.709589203706742  0.8036435264160863  0.8779517153441864  1.0000
  C   C6        1.0  0.2904107966939609  0.1963564734215045  0.1220482847888517  1.0000
  C   C7        1.0  0.643773213167357  0.9518614361447072  0.86960227361461  1.0000
  C   C8        1.0  0.3562267872333459  0.048138563692883586  0.1303977265184279  1.0000
  C   C9        1.0  0.48759414762715686  0.03669826628370426  0.8240291605879251  1.0000
  C   C10       1.0  0.5124058527735461  0.9633017335538865  0.17597083954511272  1.0000
  C   C11       1.0  0.4111235841042525  0.19499199529283764  0.81037944736379  1.0000
  C   C12       1.0  0.5888764162964504  0.8050080045447532  0.18962055276924786  1.0000
  C   C13       1.0  0.48885234654151194  0.26955436377866815  0.8448262486617907  1.0000
  C   C14       1.0  0.5111476537025855  0.7304456365262768  0.15517375053236124  1.0000
  C   C15       1.0  0.40858840941548197  0.41819779689055814  0.8302274907610857  1.0000
  C   C16       1.0  0.5914115899249565  0.5818022029136092  0.16977250938467967  1.0000
  C   C17       1.0  0.2535420575511771  0.49394282111632937  0.7795544638297097  1.0000
  C   C18       1.0  0.7464579424165233  0.5060571797580605  0.22044553629861996  1.0000
  C   C19       1.0  0.17926651193656723  0.4184712201384356  0.742821636922448  1.0000
  C   C20       1.0  0.8207334883075302  0.5815287801665093  0.257178362271704  1.0000
  C   C21       1.0  0.018592289903120993  0.4933382111452538  0.6801025124595733  1.0000
  C   C22       1.0  0.9814077104975818  0.5066617886923371  0.3198974876734646  1.0000
  C   C23       1.0  0.9321455416511796  0.647070734849822  0.6477951214548223  1.0000
  C   C24       1.0  0.0678544587495232  0.3529292649877686  0.35220487867821565  1.0000
  C   C25       1.0  0.7845208904610806  0.7131743893673758  0.5813689475428884  1.0000
  C   C26       1.0  0.21547910887935795  0.2868256104367914  0.41863105260287703  1.0000
  C   C27       1.0  0.7230598898014584  0.6254380064769718  0.5494687880343433  1.0000
  C   C28       1.0  0.2769401104426391  0.3745619938279731  0.4505312111598086  1.0000
  C   C29       1.0  0.8107190939116863  0.4724842773990202  0.5859557213143677  1.0000
  C   C30       1.0  0.18928090648901663  0.5275157224385706  0.4140442788186702  1.0000
  N   N1        1.0  0.4043315231545938  0.9704979180370604  0.7892740200321388  1.0000
  N   N2        1.0  0.595668477246109  0.029502081800530454  0.21072598010089924  1.0000
  N   N3        1.0  0.2604176389462057  0.27218081327511734  0.7613617888767726  1.0000
  N   N4        1.0  0.7395823614544972  0.7278191865624735  0.2386382112562652  1.0000
  N   N5        1.0  0.9534547376417991  0.41209987959001715  0.6474123911965498  1.0000
  N   N6        1.0  0.046545262758903944  0.5879001202475737  0.3525876089364881  1.0000
  F   F1        1.0  0.7669524648854977  0.3754320927354105  0.8488888589357971  1.0000
  F   F2        1.0  0.23304753445494075  0.6245679070687568  0.151111141209968  1.0000
  F   F3        1.0  0.6916445299427921  0.3650341744720747  0.04057238657725749  1.0000
  F   F4        1.0  0.30835547045791084  0.6349658253655162  0.9594276135557803  1.0000
  F   F5        1.0  0.8093571807301436  0.14136649379334965  0.013644115502884607  1.0000
  F   F6        1.0  0.19064281967055932  0.8586335060442413  0.9863558846301532  1.0000
  F   F7        1.0  0.9402679987921857  0.20281247979968448  0.13722694793015688  1.0000
  F   F8        1.0  0.05973200160851728  0.7971875200379063  0.8627730522028809  1.0000
  F   F9        1.0  0.017489664090091207  0.21281797334080887  0.9436808693247057  1.0000
  F   F10       1.0  0.9825103352503473  0.7871820264633583  0.05631913082105972  1.0000
  F   F11       1.0  0.9011614347641282  0.4345910917363135  0.9714143966345343  1.0000
  F   F12       1.0  0.09883856520357241  0.5654089091380765  0.028585603493795204  1.0000
  F   F13       1.0  0.8251015539799635  0.0018874179034090235  0.6445466971673338  1.0000
  F   F14       1.0  0.17489844642073943  0.9981125819341817  0.3554533029657041  1.0000
  F   F15       1.0  0.5795103430699867  0.07407306655078329  0.5477595172678438  1.0000
  F   F16       1.0  0.42048965733071625  0.9259269332868075  0.45224048286519414  1.0000
  F   F17       1.0  0.6403027006393723  0.24183117972004456  0.6033905284516244  1.0000
  F   F18       1.0  0.3596972996047253  0.7581688205849002  0.39660947074252756  1.0000
  F   F19       1.0  0.7893124797932854  0.05065401988807802  0.43450404872400256  1.0000
  F   F20       1.0  0.21068752060741747  0.9493459799495128  0.5654959514090354  1.0000
  F   F21       1.0  0.6066117832233414  0.2889071512384346  0.39365541481881045  1.0000
  F   F22       1.0  0.3933882161170971  0.7110928485657327  0.6063445853269548  1.0000
  F   F23       1.0  0.8505873711813287  0.21817560180638665  0.4915830067842817  1.0000
  F   F24       1.0  0.14941262878637174  0.7818243990680032  0.508416993344048  1.0000
  F   F25       1.0  0.12200632826453377  0.13628611548678285  0.7036454732796192  1.0000
  F   F26       1.0  0.8779936721361693  0.8637138843508079  0.2963545268534187  1.0000
  P   P1        1.0  0.8563321452665609  0.2866892271063878  0.9936241835819676  1.0000
  P   P2        1.0  0.14366785513414204  0.7133107727312029  0.006375816551070354  1.0000
  P   P3        1.0  0.7182233847994752  0.14328748239773814  0.5198081025129154  1.0000
  P   P4        1.0  0.2817766154446225  0.8567125179072066  0.48019189668123646  1.0000
