data_image0
_chemical_formula_structural       C40O2Cl36
_chemical_formula_sum              "C40 O2 Cl36"
_cell_length_a       7.154562788193287
_cell_length_b       13.57780775951096
_cell_length_c       16.133153196076975
_cell_angle_alpha    75.76210135817753
_cell_angle_beta     81.32768547870693
_cell_angle_gamma    82.93470127371234

_space_group_name_H-M_alt    "P 1"
_space_group_IT_number       1

loop_
  _space_group_symop_operation_xyz
  'x, y, z'

loop_
  _atom_site_type_symbol
  _atom_site_label
  _atom_site_symmetry_multiplicity
  _atom_site_fract_x
  _atom_site_fract_y
  _atom_site_fract_z
  _atom_site_occupancy
  C   C1        1.0  0.6925096883225043  0.21325457566691475  0.20266810231697646  1.0000
  C   C2        1.0  0.3074903111169125  0.7867454240778553  0.7973318975034421  1.0000
  C   C3        1.0  0.6989999008739743  0.3080097716021266  0.14391196657392805  1.0000
  C   C4        1.0  0.3010000985654422  0.6919902281426434  0.8560880332464906  1.0000
  C   C5        1.0  0.6745996637539071  0.31871986073699415  0.053785232491482204  1.0000
  C   C6        1.0  0.32540033690328446  0.6812801397494861  0.946214767337637  1.0000
  C   C7        1.0  0.7109069874714243  0.40572090859827326  0.9919317767431225  1.0000
  C   C8        1.0  0.2890930133634725  0.5942790911467815  0.008068223083454763  1.0000
  C   C9        1.0  0.7633434768130474  0.49671967325232635  0.013437698026178684  1.0000
  C   C10       1.0  0.23665652402184958  0.5032803264927286  0.9865623018003986  1.0000
  C   C11       1.0  0.7666557474337636  0.48893421266423653  0.10584282268039044  1.0000
  C   C12       1.0  0.2333442520056531  0.5110657870805335  0.8941571771400282  1.0000
  C   C13       1.0  0.7387168693349939  0.4000103799148302  0.1668269079243311  1.0000
  C   C14       1.0  0.26128313132219744  0.5999896205716502  0.8331730919047882  1.0000
  C   C15       1.0  0.6195633830858452  0.20300213365248523  0.2947211021658971  1.0000
  C   C16       1.0  0.38043661617586616  0.7969978668337103  0.7052788976570633  1.0000
  C   C17       1.0  0.43602216991518694  0.24800171669768  0.3193270667402494  1.0000
  C   C18       1.0  0.5639778293465245  0.7519982837885154  0.6806729330827112  1.0000
  C   C19       1.0  0.35733373844048866  0.23097398551016712  0.4062467912609381  1.0000
  C   C20       1.0  0.642666260998928  0.769026014234603  0.5937532085594804  1.0000
  C   C21       1.0  0.46095332790922283  0.16904366711721303  0.47061497478525294  1.0000
  C   C22       1.0  0.5390466727351525  0.8309563324480695  0.5293850256858548  1.0000
  C   C23       1.0  0.6438759542010231  0.12490351433003112  0.44783440186625467  1.0000
  C   C24       1.0  0.35612404663387376  0.8750964854150238  0.5521655979603225  1.0000
  C   C25       1.0  0.721427314397965  0.1426382554618263  0.3607743287624534  1.0000
  C   C26       1.0  0.2785726848637463  0.8573617450243691  0.6392256710605072  1.0000
  C   C27       1.0  0.763187713217833  0.1180520045462505  0.17469736565651173  1.0000
  C   C28       1.0  0.23681228761706377  0.8819479951988045  0.8253026341700656  1.0000
  C   C29       1.0  0.6587147466929656  0.03130690040208473  0.19818249802140867  1.0000
  C   C30       1.0  0.3412852541419313  0.9686930993429703  0.8018175018051685  1.0000
  C   C31       1.0  0.7360770333002115  0.9375023236253147  0.18042863109249552  1.0000
  C   C32       1.0  0.2639229661392052  0.062497676119455524  0.819571368727923  1.0000
  C   C33       1.0  0.9234733306336418  0.9283899289230931  0.13942240419912422  1.0000
  C   C34       1.0  0.07652666880577506  0.07161007082167693  0.8605775956212944  1.0000
  C   C35       1.0  0.027769138506299924  0.014385812670705789  0.11241665258303606  1.0000
  C   C36       1.0  0.9722308623285971  0.9856141870743492  0.8875833472435412  1.0000
  C   C37       1.0  0.9483715877828749  0.10855288025769441  0.12900205196477604  1.0000
  C   C38       1.0  0.051628411478836386  0.891447120228501  0.8709979478581845  1.0000
  C   C39       1.0  0.7708767988829911  0.36702083051475337  0.6295156039909059  1.0000
  C   C40       1.0  0.2291232005564255  0.6329791692300167  0.37048439582951276  1.0000
  O   O1        1.0  0.7983234801604403  0.5754271950238645  0.9577728799302999  1.0000
  O   O2        1.0  0.20167652067445663  0.4245728047211903  0.0422271198962774  1.0000
  Cl  Cl1       1.0  0.5735329619132878  0.22572164538315692  0.02536220866533712  1.0000
  Cl  Cl2       1.0  0.4264670387439037  0.7742783551033233  0.974637791163782  1.0000
  Cl  Cl3       1.0  0.685664029773718  0.4172034595983178  0.8866552641561916  1.0000
  Cl  Cl4       1.0  0.3143359694751771  0.5827965399666799  0.11334473630875738  1.0000
  Cl  Cl5       1.0  0.8166004893558648  0.5965841461240207  0.13111592783429327  1.0000
  Cl  Cl6       1.0  0.18339951147903194  0.40341585362103427  0.868884071992284  1.0000
  Cl  Cl7       1.0  0.7816043019346841  0.39583999259826347  0.26974752468662855  1.0000
  Cl  Cl8       1.0  0.21839569872250741  0.6041600078882169  0.7302524751424907  1.0000
  Cl  Cl9       1.0  0.3017023435178985  0.3210102069930062  0.24334611920142363  1.0000
  Cl  Cl10      1.0  0.6982976573169984  0.6789897927520487  0.7566538806251536  1.0000
  Cl  Cl11      1.0  0.1362314469258831  0.2851471912250769  0.4352882409980891  1.0000
  Cl  Cl12      1.0  0.863768552335828  0.7148528092611186  0.5647117588248715  1.0000
  Cl  Cl13      1.0  0.3652052095978214  0.14858001818756292  0.5761388930361243  1.0000
  Cl  Cl14      1.0  0.6347947912370755  0.851419981557492  0.423861106790453  1.0000
  Cl  Cl15      1.0  0.7709975913852227  0.050668142331567176  0.5256947975637113  1.0000
  Cl  Cl16      1.0  0.2290024080541939  0.9493318574132029  0.47430520225670736  1.0000
  Cl  Cl17      1.0  0.9524020908956998  0.09628202854797711  0.3359187305677533  1.0000
  Cl  Cl18      1.0  0.04759790836601154  0.9037179719382183  0.6640812692552072  1.0000
  Cl  Cl19      1.0  0.4264161262087129  0.04138947965152431  0.24356505077071983  1.0000
  Cl  Cl20      1.0  0.5735838730529985  0.9586105208346711  0.7564349490522406  1.0000
  Cl  Cl21      1.0  0.6048142714775243  0.8348878747258017  0.20614737760017732  1.0000
  Cl  Cl22      1.0  0.39518572935737245  0.16511212501925338  0.7938526222263999  1.0000
  Cl  Cl23      1.0  0.022151628192860734  0.8140305134164003  0.1205860241081226  1.0000
  Cl  Cl24      1.0  0.9778483710688507  0.18596948706979513  0.8794139757148379  1.0000
  Cl  Cl25      1.0  0.2522187876168373  0.0030536729648563163  0.05879675802095313  1.0000
  Cl  Cl26      1.0  0.7477812118225793  0.9969463267799141  0.9412032417994655  1.0000
  Cl  Cl27      1.0  0.08540397570363402  0.2092675529952617  0.09708144717296273  1.0000
  Cl  Cl28      1.0  0.9145960249407414  0.7907324465700207  0.902918553298145  1.0000
  Cl  Cl29      1.0  0.5599649671506173  0.40143255002384864  0.6937482669110069  1.0000
  Cl  Cl30      1.0  0.4400350321110942  0.5985674504623469  0.3062517329119535  1.0000
  Cl  Cl31      1.0  0.8129290247111146  0.23257202893690843  0.6493731274277734  1.0000
  Cl  Cl32      1.0  0.18707097453778057  0.7674279706280892  0.35062687303717555  1.0000
  Cl  Cl33      1.0  0.9651488923715287  0.4178802602307793  0.6553142086000662  1.0000
  Cl  Cl34      1.0  0.0348511068901827  0.5821197402554164  0.34468579122289417  1.0000
  Cl  Cl35      1.0  0.7405042137432145  0.4175732195330428  0.5191604453967488  1.0000
  Cl  Cl36      1.0  0.25949578709168225  0.582426780212012  0.48083955442982856  1.0000
