data_image0
_chemical_formula_structural       H8C18N4F16I2
_chemical_formula_sum              "H8 C18 N4 F16 I2"
_cell_length_a       5.215070859188553
_cell_length_b       8.670096999918945
_cell_length_c       13.266365290215301
_cell_angle_alpha    83.62076536213335
_cell_angle_beta     86.59086309517002
_cell_angle_gamma    87.94339027610535

_space_group_name_H-M_alt    "P 1"
_space_group_IT_number       1

loop_
  _space_group_symop_operation_xyz
  'x, y, z'

loop_
  _atom_site_type_symbol
  _atom_site_label
  _atom_site_symmetry_multiplicity
  _atom_site_fract_x
  _atom_site_fract_y
  _atom_site_fract_z
  _atom_site_occupancy
  H   H1        1.0  0.6471448901406726  0.7225596328773629  0.6021967193967426  1.0000
  H   H2        1.0  0.35285510913404267  0.27744036725941906  0.3978032800636844  1.0000
  H   H3        1.0  0.29476453179851625  0.6081672095278351  0.5150783015368696  1.0000
  H   H4        1.0  0.7052354692797624  0.39183279048569314  0.48492169868560403  1.0000
  H   H5        1.0  0.4655167152824287  0.8851018895169555  0.24642654077255252  1.0000
  H   H6        1.0  0.5344832857958499  0.11489811049657289  0.7535734594499213  1.0000
  H   H7        1.0  0.8153376590107784  0.016875406835685124  0.32402013292519666  1.0000
  H   H8        1.0  0.18466234015015465  0.9831245931812759  0.6759798672948809  1.0000
  C   C1        1.0  0.8550153525269105  0.40981276106688563  0.1982178888886496  1.0000
  C   C2        1.0  0.14498464674780467  0.5901872390698963  0.8017821105717774  1.0000
  C   C3        1.0  0.03197432479528568  0.2927643961259225  0.14312253977486952  1.0000
  C   C4        1.0  0.9680256743656475  0.7072356038910386  0.856877460445208  1.0000
  C   C5        1.0  0.8911078499362481  0.1838133182319378  0.07786676148477222  1.0000
  C   C6        1.0  0.10889214922468489  0.8161866817850232  0.9221332387353053  1.0000
  C   C7        1.0  0.06724057878869234  0.050677966364937405  0.035999534039038265  1.0000
  C   C8        1.0  0.9327594203722405  0.9493220336520238  0.9640004661810393  1.0000
  C   C9        1.0  0.755742619789467  0.8788345639249037  0.4692743110032394  1.0000
  C   C10       1.0  0.24425737937146594  0.12116543609205746  0.5307256892168382  1.0000
  C   C11       1.0  0.609700700593036  0.7617420226394358  0.5236093555047366  1.0000
  C   C12       1.0  0.3902992986816792  0.23825797749734628  0.4763906439556902  1.0000
  C   C13       1.0  0.4160153798281654  0.6979544934191538  0.4750600067555954  1.0000
  C   C14       1.0  0.5839846213638953  0.30204550671419544  0.5249399927072277  1.0000
  C   C15       1.0  0.5097093594548607  0.8539708532922647  0.32544185699800543  1.0000
  C   C16       1.0  0.49029064162341796  0.14602914672126355  0.6745581432244683  1.0000
  C   C17       1.0  0.7040416073011895  0.9265870252027594  0.3678399034658253  1.0000
  C   C18       1.0  0.2959583918597436  0.07341297481420174  0.6321600967542522  1.0000
  N   N1        1.0  0.9499148181564985  0.9395605139946495  0.5228803321753154  1.0000
  N   N2        1.0  0.05008518100443454  0.06043948602231174  0.4771196680447622  1.0000
  N   N3        1.0  0.36799961879198967  0.7419773745461063  0.377688600663205  1.0000
  N   N4        1.0  0.6320003803689433  0.25802262547085475  0.6223113995568725  1.0000
  F   F1        1.0  0.710424005432598  0.49623522214158683  0.1288398729473832  1.0000
  F   F2        1.0  0.289575993728335  0.5037647778753742  0.8711601272726944  1.0000
  F   F3        1.0  0.6895756352598308  0.32658102578481274  0.2664404984544908  1.0000
  F   F4        1.0  0.3104243639011022  0.6734189742321484  0.7335595017655868  1.0000
  F   F5        1.0  0.20618437767762965  0.3750185861365785  0.08019469134759555  1.0000
  F   F6        1.0  0.7938156215970854  0.6249814140002034  0.9198053081128315  1.0000
  F   F7        1.0  0.16015160930378927  0.20124789656713055  0.2163310711810285  1.0000
  F   F8        1.0  0.8398483898571437  0.7987521034498304  0.7836689290390491  1.0000
  F   F9        1.0  0.7904326708200589  0.27385499463298285  0.9983814579598306  1.0000
  F   F10       1.0  0.20956732834087421  0.7261450053839782  0.0016185422602469956  1.0000
  F   F11       1.0  0.6944040236079485  0.1143807694426139  0.13732632657354396  1.0000
  F   F12       1.0  0.30559597747033024  0.8856192305709143  0.8626736736489297  1.0000
  F   F13       1.0  0.27630820989296484  0.11657112634347329  0.983904213061409  1.0000
  F   F14       1.0  0.7236917893817503  0.8834288737933087  0.01609578639901791  1.0000
  F   F15       1.0  0.14637601829063782  0.9539530111891774  0.11745769945763763  1.0000
  F   F16       1.0  0.8536239808702952  0.046046988827783616  0.88254230076244  1.0000
  I   I1        1.0  0.07780132797303424  0.5629005711784825  0.2792087000415843  1.0000
  I   I2        1.0  0.9221986711878987  0.4370994288384786  0.7207913001784932  1.0000
