data_image0
_chemical_formula_structural       H54C44N2O2I2
_chemical_formula_sum              "H54 C44 N2 O2 I2"
_cell_length_a       8.435948957234372
_cell_length_b       10.129381635145664
_cell_length_c       13.182075950484286
_cell_angle_alpha    99.25635784855784
_cell_angle_beta     97.12877786453315
_cell_angle_gamma    113.78581040502787

_space_group_name_H-M_alt    "P 1"
_space_group_IT_number       1

loop_
  _space_group_symop_operation_xyz
  'x, y, z'

loop_
  _atom_site_type_symbol
  _atom_site_label
  _atom_site_symmetry_multiplicity
  _atom_site_fract_x
  _atom_site_fract_y
  _atom_site_fract_z
  _atom_site_occupancy
  H   H1        1.0  0.43906804492976814  0.22134592501013184  0.035488751497344095  1.0000
  H   H2        1.0  0.5609319551672458  0.7786540756536222  0.9645112491104026  1.0000
  H   H3        1.0  0.371424101726705  0.04722700461141709  0.15402116884110192  1.0000
  H   H4        1.0  0.6285758983703088  0.9527729960523369  0.8459788317666449  1.0000
  H   H5        1.0  0.3115206751621783  0.13098045661112737  0.5633921599301112  1.0000
  H   H6        1.0  0.6884793246711375  0.8690195438117171  0.43660783989172447  1.0000
  H   H7        1.0  0.20100452719748518  0.9913148173644012  0.6960868434118316  1.0000
  H   H8        1.0  0.7989954721136511  0.008685181975730243  0.3039131563978514  1.0000
  H   H9        1.0  0.7953994381551097  0.1478851800315659  0.701198007628248  1.0000
  H   H10       1.0  0.20460056194190407  0.8521148206321881  0.2988019929794987  1.0000
  H   H11       1.0  0.9091467931446551  0.29156463157302714  0.568893021601225  1.0000
  H   H12       1.0  0.09085320695235881  0.7084353690907269  0.43110697900652173  1.0000
  H   H13       1.0  0.13276548167918414  0.9700760999995575  0.8622786344821726  1.0000
  H   H14       1.0  0.8672345176319519  0.02992389934057395  0.13772136532751048  1.0000
  H   H15       1.0  0.9934653622095736  0.8121694253019127  0.7570202886594872  1.0000
  H   H16       1.0  0.0065346376237420244  0.18783057512093182  0.2429797111623484  1.0000
  H   H17       1.0  0.8700505063726073  0.9163651280465935  0.9501749061332425  1.0000
  H   H18       1.0  0.12994949320222704  0.08363487153444757  0.04982509446235179  1.0000
  H   H19       1.0  0.7461893960007596  0.7552078199343155  0.8493712479404337  1.0000
  H   H20       1.0  0.2538106033103764  0.24479217940581585  0.1506287518692493  1.0000
  H   H21       1.0  0.07863910070046513  0.8101685192009976  0.007705446590964753  1.0000
  H   H22       1.0  0.9213609003214583  0.18983148122706228  0.9922945532344796  1.0000
  H   H23       1.0  0.9593305719999188  0.6502793019781345  0.9048147715173489  1.0000
  H   H24       1.0  0.04066942809709517  0.3497206986856196  0.09518522909039805  1.0000
  H   H25       1.0  0.8067174568822049  0.7595187701876982  0.08247858603556582  1.0000
  H   H26       1.0  0.19328254413971857  0.24048123024036155  0.9175214137898785  1.0000
  H   H27       1.0  0.6835476543055484  0.6028393225639297  0.9777732633805689  1.0000
  H   H28       1.0  0.3164523455277673  0.3971606778589149  0.022226736441266777  1.0000
  H   H29       1.0  0.003490898615394108  0.6363886416579665  0.13625336003764607  1.0000
  H   H30       1.0  0.9965091018843499  0.36361135768738023  0.8637466397756457  1.0000
  H   H31       1.0  0.8657441961689425  0.47859620367089084  0.03498418858346755  1.0000
  H   H32       1.0  0.13425580366437326  0.5214037967519537  0.9650158112383681  1.0000
  H   H33       1.0  0.6035369628880431  0.457782849946992  0.11618428291999203  1.0000
  H   H34       1.0  0.3964630369452725  0.5422171504758525  0.8838157169018437  1.0000
  H   H35       1.0  0.7432660646243021  0.6110387881274889  0.2188670731673671  1.0000
  H   H36       1.0  0.25673393520901355  0.3889612122953557  0.7811329266544685  1.0000
  H   H37       1.0  0.7792205986270527  0.3192590707427492  0.16696683572751742  1.0000
  H   H38       1.0  0.2207794009477815  0.6807409288382917  0.833033164868077  1.0000
  H   H39       1.0  0.9163316697869426  0.4720817968056561  0.2713840844691935  1.0000
  H   H40       1.0  0.0836683303100712  0.527918203858098  0.7286159161385533  1.0000
  H   H41       1.0  0.5144956620398585  0.29793803980759337  0.24665748030927115  1.0000
  H   H42       1.0  0.4855043372712775  0.7020619595325379  0.7533425195004119  1.0000
  H   H43       1.0  0.6553405529341162  0.44415708377708985  0.35333514529768123  1.0000
  H   H44       1.0  0.3446594471628978  0.5558429168866643  0.6466648553100657  1.0000
  H   H45       1.0  0.8215941423368459  0.2978344007000413  0.39739809822705285  1.0000
  H   H46       1.0  0.17840585697429026  0.7021655986400901  0.6026019015826302  1.0000
  H   H47       1.0  0.6863720822422921  0.15298778006281313  0.2877031339687484  1.0000
  H   H48       1.0  0.31362791759102376  0.8470122203600313  0.7122968658530873  1.0000
  H   H49       1.0  0.5437017544641672  0.2632093095158818  0.47117995822513054  1.0000
  H   H50       1.0  0.4562982448469689  0.7367906898242497  0.5288200415845525  1.0000
  H   H51       1.0  0.5835283577713806  0.10246952139432688  0.4574522245286665  1.0000
  H   H52       1.0  0.4164716432505429  0.8975304790337331  0.5425477752967778  1.0000
  H   H53       1.0  0.4180550540473851  0.10972852524490266  0.36374543849212304  1.0000
  H   H54       1.0  0.5819449455274492  0.8902714743361384  0.6362545621034713  1.0000
  C   C1        1.0  0.606437362651957  0.283084883565079  0.8058007468085913  1.0000
  C   C2        1.0  0.393562637847787  0.7169151157802678  0.1941992530047005  1.0000
  C   C3        1.0  0.5744320825914445  0.19733469052194977  0.8641660313336714  1.0000
  C   C4        1.0  0.42556791724187115  0.8026653099008947  0.13583396848816418  1.0000
  C   C5        1.0  0.5370183876308771  0.09850812236293552  0.9320521422170033  1.0000
  C   C6        1.0  0.46298161246613684  0.9014918783008186  0.06794785839074359  1.0000
  C   C7        1.0  0.4654445731860499  0.12417006537252002  0.020276459324899163  1.0000
  C   C8        1.0  0.5345554261250862  0.8758299339676116  0.9797235404847839  1.0000
  C   C9        1.0  0.4288590099229144  0.02760264042933047  0.08684861242603065  1.0000
  C   C10       1.0  0.5711409893882217  0.9723973589108009  0.9131513873836524  1.0000
  C   C11       1.0  0.18201369433997217  0.3022324343791748  0.48167891493126636  1.0000
  C   C12       1.0  0.8179863054933436  0.6977675660436697  0.5183210848905694  1.0000
  C   C13       1.0  0.11801370991925172  0.2203379484439321  0.5571414990172286  1.0000
  C   C14       1.0  0.8819862901777622  0.779662052219822  0.44285850159051815  1.0000
  C   C15       1.0  0.19896732732831324  0.13499636344413393  0.5937039340889767  1.0000
  C   C16       1.0  0.8010326736936102  0.8650036369839258  0.4062960657364676  1.0000
  C   C17       1.0  0.13598363958899334  0.05571081490027605  0.6681339013763008  1.0000
  C   C18       1.0  0.8640163609107505  0.9442891844450707  0.331866098436991  1.0000
  C   C19       1.0  0.989059509995903  0.05927075739053503  0.7060135773962487  1.0000
  C   C20       1.0  0.010940490767539352  0.9407292421957214  0.29398642320295415  1.0000
  C   C21       1.0  0.9073638699427009  0.14454133000598288  0.6695199680469549  1.0000
  C   C22       1.0  0.09263612936843518  0.8554586693341485  0.33048003176272805  1.0000
  C   C23       1.0  0.9713354902579402  0.22455890725352998  0.5962425788227333  1.0000
  C   C24       1.0  0.028664509053196095  0.7754410920866015  0.4037574209869498  1.0000
  C   C25       1.0  0.9945838582681287  0.8971416629747654  0.8211728676688568  1.0000
  C   C26       1.0  0.005416141306705673  0.10285833660627558  0.1788271329267374  1.0000
  C   C27       1.0  0.8809473199729639  0.8277016095071621  0.8956154697803785  1.0000
  C   C28       1.0  0.11905267960187038  0.17229839007387898  0.1043845308152156  1.0000
  C   C29       1.0  0.9459584410992705  0.7386987269703669  0.9583998148668357  1.0000
  C   C30       1.0  0.05404155821186552  0.26130127236976447  0.0416001849428475  1.0000
  C   C31       1.0  0.8172643064221087  0.6702877219845444  0.027639335647806934  1.0000
  C   C32       1.0  0.18273569288902733  0.32971227735558695  0.972360664161876  1.0000
  C   C33       1.0  0.8666801862481812  0.573251307500052  0.0900492274842501  1.0000
  C   C34       1.0  0.13331981306295487  0.4267486918400794  0.909950772325433  1.0000
  C   C35       1.0  0.7404412933982064  0.5161724018243663  0.16303217540276638  1.0000
  C   C36       1.0  0.2595587066988073  0.4838275988393877  0.8369678252049804  1.0000
  C   C37       1.0  0.7804823563716967  0.41297663646881266  0.2233931143713948  1.0000
  C   C38       1.0  0.21951764439174534  0.5870233631174436  0.7766068862278082  1.0000
  C   C39       1.0  0.651012887973973  0.35238025782742155  0.293734570425228  1.0000
  C   C40       1.0  0.3489871113371631  0.6476197415127098  0.706265429384455  1.0000
  C   C41       1.0  0.6866099761288347  0.2421199859682556  0.34816751342799673  1.0000
  C   C42       1.0  0.31339002396817917  0.7578800146954985  0.6518324871797501  1.0000
  C   C43       1.0  0.5508725195122918  0.17517723828871293  0.41384321318968337  1.0000
  C   C44       1.0  0.44912748032102384  0.8248227621341315  0.5861567866321522  1.0000
  N   N1        1.0  0.23282857978572166  0.3706171983674508  0.41942686453425937  1.0000
  N   N2        1.0  0.7671714200475941  0.6293828020553938  0.5805731352875763  1.0000
  O   O1        1.0  0.9165132382955656  0.9851322402213011  0.7775333319374238  1.0000
  O   O2        1.0  0.08348676220417828  0.014867759124045678  0.22246666787586794  1.0000
  I   I1        1.0  0.6643185091637972  0.4251767103625814  0.7119378570468461  1.0000
  I   I2        1.0  0.3356814906695185  0.5748232900602632  0.28806214277498954  1.0000
