data_image0
_chemical_formula_structural       H16C16N2O2Br4
_chemical_formula_sum              "H16 C16 N2 O2 Br4"
_cell_length_a       6.607377302525351
_cell_length_b       7.570371613771417
_cell_length_c       8.904877990312002
_cell_angle_alpha    78.62664714063031
_cell_angle_beta     70.98660912557322
_cell_angle_gamma    86.64977752299427

_space_group_name_H-M_alt    "P 1"
_space_group_IT_number       1

loop_
  _space_group_symop_operation_xyz
  'x, y, z'

loop_
  _atom_site_type_symbol
  _atom_site_label
  _atom_site_symmetry_multiplicity
  _atom_site_fract_x
  _atom_site_fract_y
  _atom_site_fract_z
  _atom_site_occupancy
  H   H1        1.0  0.6151245571002839  0.907543245839323  0.8693002389249478  1.0000
  H   H2        1.0  0.3848754430052187  0.09245675393635501  0.13069976090382426  1.0000
  H   H3        1.0  0.8487896878829628  0.8572488088509647  0.923114708805788  1.0000
  H   H4        1.0  0.15121031214346364  0.14275119224360475  0.07688529104224737  1.0000
  H   H5        1.0  0.7414875281238449  0.6947389638967949  0.8540799607567857  1.0000
  H   H6        1.0  0.2585124714845569  0.3052610356033489  0.14592004028129496  1.0000
  H   H7        1.0  0.13981447511986894  0.1616376061144102  0.7969219625241134  1.0000
  H   H8        1.0  0.8601855244885327  0.8383623933857337  0.20307803851396736  1.0000
  H   H9        1.0  0.36280008020686166  0.039618447436159124  0.6994045808759509  1.0000
  H   H10       1.0  0.6371999198986411  0.9603815523395189  0.300595418952821  1.0000
  H   H11       1.0  0.1440506689595052  0.9239285261925466  0.8526696341072212  1.0000
  H   H12       1.0  0.8559493311459974  0.07607147358313135  0.14733036572155073  1.0000
  H   H13       1.0  0.5628226568085998  0.7668467515749466  0.5037703965481629  1.0000
  H   H14       1.0  0.43717734329690294  0.2331532482007313  0.496229603280609  1.0000
  H   H15       1.0  0.5779519569089513  0.7267661271092284  0.6953720591192595  1.0000
  H   H16       1.0  0.4220480431965515  0.27323387266644955  0.30462794070951243  1.0000
  C   C1        1.0  0.196831851307724  0.6066210392298704  0.46391992138669325  1.0000
  C   C2        1.0  0.8031681487977785  0.3933789605458075  0.5360800784420788  1.0000
  C   C3        1.0  0.07723062336823266  0.5151533266656991  0.6274673110463878  1.0000
  C   C4        1.0  0.9227693762401692  0.48484667283444477  0.3725326899916929  1.0000
  C   C5        1.0  0.891733499883767  0.42025590193222173  0.6605832127203766  1.0000
  C   C6        1.0  0.10826650022173566  0.5797440978434562  0.3394167871083954  1.0000
  C   C7        1.0  0.8160117165789307  0.896429111382191  0.5390729933426347  1.0000
  C   C8        1.0  0.18398828295039488  0.10357088943684442  0.46092700771470946  1.0000
  C   C9        1.0  0.8992810329661856  0.9185056838246514  0.6649416893066789  1.0000
  C   C10       1.0  0.10071896713931701  0.08149431595102648  0.3350583105220931  1.0000
  C   C11       1.0  0.08530221009919096  0.016932997671133702  0.6262074626966218  1.0000
  C   C12       1.0  0.9146977900063118  0.9830670021045443  0.37379253713215016  1.0000
  C   C13       1.0  0.7711880674596078  0.8399579916989446  0.8359631098602607  1.0000
  C   C14       1.0  0.22881193264589492  0.1600420080767336  0.16403688996851132  1.0000
  C   C15       1.0  0.1878089000214713  0.0365524172199085  0.7499152403838899  1.0000
  C   C16       1.0  0.8121911000840314  0.9634475825557695  0.25008475944488195  1.0000
  N   N1        1.0  0.6444373248762932  0.7888571229168596  0.5790174179247293  1.0000
  N   N2        1.0  0.3555626751501333  0.21114287817770985  0.42098258192330607  1.0000
  O   O1        1.0  0.3602592980710585  0.7022582739549975  0.4309002430297342  1.0000
  O   O2        1.0  0.6397407020344442  0.29774172582068037  0.5690997567990378  1.0000
  Br  Br1       1.0  0.19402828752738588  0.5320730616114107  0.7916301756279467  1.0000
  Br  Br2       1.0  0.8059717125781168  0.46792693816426734  0.2083698242008252  1.0000
  Br  Br3       1.0  0.724169463604439  0.3166551293394902  0.8743118894369284  1.0000
  Br  Br4       1.0  0.27583053650106365  0.6833448704361879  0.12568811039184355  1.0000
