data_image0
_chemical_formula_structural       H52C88O8Cl4
_chemical_formula_sum              "H52 C88 O8 Cl4"
_cell_length_a       7.456841601532646
_cell_length_b       7.456841601532646
_cell_length_c       26.735490229914536
_cell_angle_alpha    90.0
_cell_angle_beta     90.0
_cell_angle_gamma    90.0

_space_group_name_H-M_alt    "P 1"
_space_group_IT_number       1

loop_
  _space_group_symop_operation_xyz
  'x, y, z'

loop_
  _atom_site_type_symbol
  _atom_site_label
  _atom_site_symmetry_multiplicity
  _atom_site_fract_x
  _atom_site_fract_y
  _atom_site_fract_z
  _atom_site_occupancy
  H   H1        1.0  0.9443165466348269  0.026459693244359546  0.9209367690011758  1.0000
  H   H2        1.0  0.05568345296815713  0.9735403067415853  0.4209367688125603  1.0000
  H   H3        1.0  0.9735403065501048  0.9443165468263074  0.6709367689068682  1.0000
  H   H4        1.0  0.02645969305287907  0.055683453159637616  0.17093676909228714  1.0000
  H   H5        1.0  0.8924369907995058  0.1818396854501457  0.7637606112474592  1.0000
  H   H6        1.0  0.10756301014452853  0.8181603145357993  0.2637606110588435  1.0000
  H   H7        1.0  0.8181603143443187  0.8924369909909863  0.5137606111531513  1.0000
  H   H8        1.0  0.1818396852586652  0.10756300899495864  0.013760610964535734  1.0000
  H   H9        1.0  0.2024715879164739  0.06727840379309961  0.7470505776494918  1.0000
  H   H10       1.0  0.7975284130275605  0.9327215961928453  0.2470505774608762  1.0000
  H   H11       1.0  0.932721596001365  0.20247158810795438  0.497050577555184  1.0000
  H   H12       1.0  0.06727840360161913  0.7975284118779905  0.997050577369765  1.0000
  H   H13       1.0  0.06294269269307157  0.42989351140716164  0.9921802735571082  1.0000
  H   H14       1.0  0.9370573069099123  0.5701064885787834  0.49218027374252726  1.0000
  H   H15       1.0  0.5701064883873028  0.06294269288455205  0.7421802738368352  1.0000
  H   H16       1.0  0.42989351121568115  0.9370573071013929  0.24218027364821945  1.0000
  H   H17       1.0  0.3722205416016079  0.3082399551116988  0.981474433584152  1.0000
  H   H18       1.0  0.627779458001376  0.6917600448742461  0.481474433769571  1.0000
  H   H19       1.0  0.6917600446827656  0.3722205417930884  0.7314744334898442  1.0000
  H   H20       1.0  0.3082399549202184  0.6277794581928565  0.2314744336752632  1.0000
  H   H21       1.0  0.5165624315758518  0.30558571745297813  0.898049953583243  1.0000
  H   H22       1.0  0.48343756802713217  0.6944142825329668  0.3980499533946275  1.0000
  H   H23       1.0  0.6944142823414864  0.5165624317673323  0.6480499534889353  1.0000
  H   H24       1.0  0.30558571726149764  0.48343756821861267  0.14804995330031967  1.0000
  H   H25       1.0  0.6268117118188193  0.6874279386384449  0.8814785110478722  1.0000
  H   H26       1.0  0.37318828778416485  0.3125720613475001  0.3814785112332912  1.0000
  H   H27       1.0  0.3125720624970699  0.6268117120102997  0.631478511327599  1.0000
  H   H28       1.0  0.6874279384469644  0.37318828797564524  0.13147851113898337  1.0000
  H   H29       1.0  0.7898104591601289  0.5666952923150707  0.9553531474586934  1.0000
  H   H30       1.0  0.2101895404428551  0.43330470767087426  0.4553531476441124  1.0000
  H   H31       1.0  0.43330470747939376  0.7898104593516094  0.7053531473643856  1.0000
  H   H32       1.0  0.5666952921235902  0.2101895406343356  0.20535314754980463  1.0000
  H   H33       1.0  0.5102735008709791  0.38210057729306784  0.8084892763931599  1.0000
  H   H34       1.0  0.4897264987320049  0.6178994226928772  0.3084892765785789  1.0000
  H   H35       1.0  0.6178994225013966  0.5102735010624596  0.558489276298852  1.0000
  H   H36       1.0  0.38210057710158735  0.4897264989234854  0.058489276484271095  1.0000
  H   H37       1.0  0.3539966637785854  0.5127183269817123  0.7355895807736182  1.0000
  H   H38       1.0  0.6460033358243986  0.48728167300423264  0.23558958095903726  1.0000
  H   H39       1.0  0.48728167281275214  0.3539966639700659  0.4855895806793104  1.0000
  H   H40       1.0  0.5127183267902318  0.646003336015879  0.985589580867926  1.0000
  H   H41       1.0  0.07972936275603311  0.6563236302495588  0.6987844845686123  1.0000
  H   H42       1.0  0.9202706381880011  0.34367636973638604  0.19878448475403132  1.0000
  H   H43       1.0  0.34367637088595593  0.07972936294751358  0.44878448447430447  1.0000
  H   H44       1.0  0.6563236300580784  0.9202706370384314  0.9487844846629202  1.0000
  H   H45       1.0  0.7681339010516159  0.7639153083157834  0.7083617160986143  1.0000
  H   H46       1.0  0.23186609855136794  0.23608469167016144  0.20836171628403338  1.0000
  H   H47       1.0  0.23608469147868097  0.7681339012430966  0.45836171600430653  1.0000
  H   H48       1.0  0.763915308124303  0.23186609874284844  0.9583617161929222  1.0000
  H   H49       1.0  0.6198668479112027  0.7597725342215408  0.79184392872334  1.0000
  H   H50       1.0  0.3801331530328315  0.24022746576440426  0.29184392853472435  1.0000
  H   H51       1.0  0.2402274655729238  0.6198668481026833  0.5418439286290322  1.0000
  H   H52       1.0  0.7597725340300602  0.38013315188326163  0.04184392881445122  1.0000
  C   C1        1.0  0.2513944708462953  0.9791431909802498  0.823458967487591  1.0000
  C   C2        1.0  0.7486055287566887  0.020856809005695188  0.3234589672989753  1.0000
  C   C3        1.0  0.020856810155265054  0.25139447103777574  0.5734589673932832  1.0000
  C   C4        1.0  0.9791431907887692  0.7486055289481691  0.07345896757870214  1.0000
  C   C5        1.0  0.17039521375264727  0.9715461206463418  0.8744765653797676  1.0000
  C   C6        1.0  0.829604787191387  0.02845387933960309  0.3744765655651867  1.0000
  C   C7        1.0  0.028453879148122613  0.17039521394412777  0.6244765656594945  1.0000
  C   C8        1.0  0.9715461204548614  0.8296047873828675  0.1244765654708789  1.0000
  C   C9        1.0  0.0037946628698861387  0.03364648109916268  0.8838134392449303  1.0000
  C   C10       1.0  0.9962053367330979  0.9663535188867822  0.3838134394303493  1.0000
  C   C11       1.0  0.9663535186953018  0.0037946630613666177  0.6338134395246572  1.0000
  C   C12       1.0  0.03364648090768221  0.9962053369245782  0.13381343933604153  1.0000
  C   C13       1.0  0.8953854308056767  0.11345803578616659  0.8436133433889197  1.0000
  C   C14       1.0  0.10461457013835766  0.8865419641997784  0.3436133435743387  1.0000
  C   C15       1.0  0.8865419640082978  0.8953854296561068  0.5936133432946119  1.0000
  C   C16       1.0  0.1134580355946861  0.10461457032983815  0.0936133434800309  1.0000
  C   C17       1.0  0.9741776985491323  0.12151299971354267  0.7930575859153706  1.0000
  C   C18       1.0  0.025822301053851675  0.8784870002724022  0.29305758610078964  1.0000
  C   C19       1.0  0.8784870014219722  0.9741776987406129  0.5430575861950975  1.0000
  C   C20       1.0  0.1215129995220622  0.025822301245332156  0.04305758600648183  1.0000
  C   C21       1.0  0.14055423809725448  0.059297988857615815  0.783909362041535  1.0000
  C   C22       1.0  0.8594457615057295  0.9407020111283291  0.2839093618529195  1.0000
  C   C23       1.0  0.9407020109368486  0.14055423828873495  0.5339093619472273  1.0000
  C   C24       1.0  0.05929798866613533  0.85944576169721  0.03390936175861167  1.0000
  C   C25       1.0  0.12582349867756373  0.4277475666807875  0.9553171709349143  1.0000
  C   C26       1.0  0.8741765022664705  0.5722524333051574  0.45531717112033343  1.0000
  C   C27       1.0  0.572252433113677  0.1258234988690442  0.7053171712146412  1.0000
  C   C28       1.0  0.427747566489307  0.8741765011169007  0.20531717102602562  1.0000
  C   C29       1.0  0.29916949141392657  0.36087283788810476  0.9492817925441545  1.0000
  C   C30       1.0  0.7008305095301077  0.6391271620978402  0.44928179272957347  1.0000
  C   C31       1.0  0.6391271619063598  0.29916949160540707  0.6992817924498466  1.0000
  C   C32       1.0  0.36087283769662426  0.7008305083805378  0.19928179263526566  1.0000
  C   C33       1.0  0.38206165984536183  0.3603284237649982  0.9025345423814632  1.0000
  C   C34       1.0  0.6179383410986724  0.6396715762209467  0.40253454256688237  1.0000
  C   C35       1.0  0.6396715760294663  0.38206166003684233  0.6525345422871555  1.0000
  C   C36       1.0  0.360328424914568  0.6179383399491026  0.15253454247257453  1.0000
  C   C37       1.0  0.2928295149700431  0.4305497370036978  0.860515925541476  1.0000
  C   C38       1.0  0.7071704846329409  0.5694502629822471  0.36051592572689517  1.0000
  C   C39       1.0  0.5694502627907666  0.2928295151615236  0.610515925821203  1.0000
  C   C40       1.0  0.4305497381532677  0.7071704848244215  0.11051592563258732  1.0000
  C   C41       1.0  0.023227898410472687  0.5719222343621475  0.8240091952886709  1.0000
  C   C42       1.0  0.9767721011925113  0.42807776562379735  0.3240091954740899  1.0000
  C   C43       1.0  0.4280777654323169  0.023227898601953168  0.574009195194363  1.0000
  C   C44       1.0  0.5719222341706671  0.9767721013839918  0.07400919537978208  1.0000
  C   C45       1.0  0.8449504637180665  0.6393020203388295  0.8295150887184944  1.0000
  C   C46       1.0  0.1550495358849174  0.3606979796471155  0.3295150889039135  1.0000
  C   C47       1.0  0.360697979455635  0.844950463909547  0.5795150886241867  1.0000
  C   C48       1.0  0.6393020201473492  0.1550495360763979  0.0795150888096057  1.0000
  C   C49       1.0  0.7628232009011198  0.6346889144214135  0.8779287747541343  1.0000
  C   C50       1.0  0.23717679870186412  0.36531108556453146  0.3779287749395534  1.0000
  C   C51       1.0  0.365311085373051  0.7628232010926004  0.6279287750338611  1.0000
  C   C52       1.0  0.6346889155709834  0.23717679889334461  0.1279287748452456  1.0000
  C   C53       1.0  0.8524971843150108  0.5675591325887037  0.9184788398801879  1.0000
  C   C54       1.0  0.1475028166290235  0.43244086739724114  0.4184788396915722  1.0000
  C   C55       1.0  0.432440868546811  0.8524971845064914  0.66847883978588  1.0000
  C   C56       1.0  0.5675591323972233  0.14750281547945363  0.16847883997129903  1.0000
  C   C57       1.0  0.030560140803271452  0.4968836255395432  0.9140631366712784  1.0000
  C   C58       1.0  0.9694398587997126  0.5031163744464017  0.4140631368566974  1.0000
  C   C59       1.0  0.5031163742549213  0.030560140994751933  0.6640631365769706  1.0000
  C   C60       1.0  0.4968836253480627  0.969439858991193  0.1640631367623896  1.0000
  C   C61       1.0  0.11507066733333386  0.4991263713311704  0.8660812530787851  1.0000
  C   C62       1.0  0.8849293322696501  0.5008736286547746  0.3660812528901695  1.0000
  C   C63       1.0  0.5008736284632941  0.11507066752481433  0.6160812529844774  1.0000
  C   C64       1.0  0.4991263711396899  0.8849293324611307  0.11608125279586169  1.0000
  C   C65       1.0  0.375298265528527  0.43690778142132464  0.8121798356143107  1.0000
  C   C66       1.0  0.6247017354155072  0.5630922185646202  0.3121798354256951  1.0000
  C   C67       1.0  0.5630922183731398  0.3752982657200075  0.562179835520003  1.0000
  C   C68       1.0  0.43690778122984414  0.6247017342659374  0.06217983570542196  1.0000
  C   C69       1.0  0.2879930101815692  0.5094829933936575  0.7719891340128224  1.0000
  C   C70       1.0  0.7120069894214148  0.49051700659228736  0.2719891341982415  1.0000
  C   C71       1.0  0.4905170064008069  0.2879930103730497  0.5219891339185146  1.0000
  C   C72       1.0  0.5094829945432274  0.7120069896128952  0.0219891341039337  1.0000
  C   C73       1.0  0.10973411035110513  0.5789901865783627  0.7762568500344398  1.0000
  C   C74       1.0  0.8902658892518789  0.42100981340758237  0.27625685021985885  1.0000
  C   C75       1.0  0.42100981321610187  0.10973411054258561  0.5262568503141667  1.0000
  C   C76       1.0  0.5789901863868822  0.8902658894433593  0.026256850125551037  1.0000
  C   C77       1.0  0.015124055880053685  0.6511314373398573  0.7353050024870571  1.0000
  C   C78       1.0  0.9848759450639806  0.34886856264608773  0.23530500267247614  1.0000
  C   C79       1.0  0.34886856245460723  0.015124056071534163  0.48530500239274926  1.0000
  C   C80       1.0  0.6511314384894271  0.9848759439144108  0.9853050025813649  1.0000
  C   C81       1.0  0.8398914894069183  0.7124585521713755  0.7408809013659639  1.0000
  C   C82       1.0  0.16010851019606573  0.28754144781456936  0.24088090117734814  1.0000
  C   C83       1.0  0.2875414476230889  0.8398914895983988  0.49088090127165596  1.0000
  C   C84       1.0  0.712458551979895  0.16010851038754623  0.9908809010862368  1.0000
  C   C85       1.0  0.7556046152073068  0.7088244948092374  0.7874139908773722  1.0000
  C   C86       1.0  0.24439538573672753  0.2911755051767076  0.28741399106279125  1.0000
  C   C87       1.0  0.2911755063262775  0.7556046153987872  0.5374139911570991  1.0000
  C   C88       1.0  0.708824494617757  0.24439538458715768  0.03741399096848345  1.0000
  O   O1        1.0  0.40339269350540063  0.9207064059353042  0.8150528381042391  1.0000
  O   O2        1.0  0.5966073060975834  0.07929359405064076  0.31505283828965813  1.0000
  O   O3        1.0  0.07929359385916028  0.403392693696881  0.5650528383839659  1.0000
  O   O4        1.0  0.9207064057438237  0.5966073062890639  0.06505283819535033  1.0000
  O   O5        1.0  0.7432435414227679  0.17386491900200204  0.8522833646979227  1.0000
  O   O6        1.0  0.256756458180216  0.826135080983943  0.3522833645093071  1.0000
  O   O7        1.0  0.8261350807924625  0.7432435416142483  0.6022833646036149  1.0000
  O   O8        1.0  0.17386491881052155  0.25675645837169647  0.10228336441499922  1.0000
  Cl  Cl1       1.0  0.3001965548367844  0.8798536915522153  0.9204398347805669  1.0000
  Cl  Cl2       1.0  0.6998034447661995  0.12014630843372955  0.420439834965986  1.0000
  Cl  Cl3       1.0  0.12014630824224906  0.3001965550282648  0.6704398346862592  1.0000
  Cl  Cl4       1.0  0.8798536913607349  0.6998034449576801  0.17043983487167821  1.0000
