data_image0
_chemical_formula_structural       H40C40N8S8Cl4I12
_chemical_formula_sum              "H40 C40 N8 S8 Cl4 I12"
_cell_length_a       12.926197353372025
_cell_length_b       11.353233475402904
_cell_length_c       13.165607607111205
_cell_angle_alpha    90.0
_cell_angle_beta     117.22831018701939
_cell_angle_gamma    90.0

_space_group_name_H-M_alt    "P 1"
_space_group_IT_number       1

loop_
  _space_group_symop_operation_xyz
  'x, y, z'

loop_
  _atom_site_type_symbol
  _atom_site_label
  _atom_site_symmetry_multiplicity
  _atom_site_fract_x
  _atom_site_fract_y
  _atom_site_fract_z
  _atom_site_occupancy
  H   H1        1.0  0.2315618996980237  0.5214056993388769  0.7779664709159586  1.0000
  H   H2        1.0  0.7684381004061372  0.021405699136419418  0.7220335285694887  1.0000
  H   H3        1.0  0.7684381007243088  0.4785943001852318  0.22203352924210604  1.0000
  H   H4        1.0  0.23156189961599447  0.9785943003876894  0.27796647073436975  1.0000
  H   H5        1.0  0.5069430799887679  0.8635612710018779  0.47521130251836663  1.0000
  H   H6        1.0  0.4930569203515355  0.36356127079942036  0.02478869745810923  1.0000
  H   H7        1.0  0.49305692043356475  0.13643872940303714  0.524788697639698  1.0000
  H   H8        1.0  0.5069430800707971  0.6364387287246883  0.9752113026999554  1.0000
  H   H9        1.0  0.004637962899959211  0.31138316301334956  0.8456705877337678  1.0000
  H   H10       1.0  0.9953620376044027  0.8113831632158071  0.6543294126058856  1.0000
  H   H11       1.0  0.9953620375223735  0.6886168373915655  0.15432941242429685  1.0000
  H   H12       1.0  0.004637962817930011  0.18861683718910793  0.345670587552179  1.0000
  H   H13       1.0  0.2032395468450122  0.38534615618346935  0.8946616860101791  1.0000
  H   H14       1.0  0.7967604528868263  0.8853461563859268  0.605338314331827  1.0000
  H   H15       1.0  0.7967604528047972  0.6146538433406394  0.10533831415023828  1.0000
  H   H16       1.0  0.203239546762983  0.1146538440189882  0.39466168582859046  1.0000
  H   H17       1.0  0.8721939663058711  0.5511573908487719  0.5553045859217879  1.0000
  H   H18       1.0  0.12780603419849074  0.051157390646314395  0.9446954144178655  1.0000
  H   H19       1.0  0.1278060341164615  0.4488426095561432  0.44469541423627673  1.0000
  H   H20       1.0  0.8721939662238419  0.9488426088777943  0.05530458574019911  1.0000
  H   H21       1.0  0.07721339513776405  0.6114894188550657  0.6150535686718226  1.0000
  H   H22       1.0  0.922786605366598  0.11148941865260817  0.8849464316678309  1.0000
  H   H23       1.0  0.9227866052845686  0.38851058154984935  0.3849464314862421  1.0000
  H   H24       1.0  0.07721339505573477  0.888510581752307  0.11505356849023374  1.0000
  H   H25       1.0  0.5419302402445967  0.5580311312830785  0.31775573858222655  1.0000
  H   H26       1.0  0.45806976009570677  0.058031131080620975  0.18224426139424926  1.0000
  H   H27       1.0  0.45806976017773593  0.44196886824103027  0.6822442615758381  1.0000
  H   H28       1.0  0.5419302399264251  0.9419688684434878  0.8177557379096092  1.0000
  H   H29       1.0  0.7057608564213662  0.5872265671664436  0.6886804011802488  1.0000
  H   H30       1.0  0.2942391433104723  0.08722656696398609  0.8113195991617574  1.0000
  H   H31       1.0  0.2942391432284431  0.41277343323847143  0.31131959898016875  1.0000
  H   H32       1.0  0.7057608563393369  0.9127734334409289  0.18868040099865993  1.0000
  H   H33       1.0  0.6217454586054132  0.7914302378672019  0.6628417048893825  1.0000
  H   H34       1.0  0.3782545411264254  0.29143023766474435  0.8371582954526237  1.0000
  H   H35       1.0  0.3782545410443962  0.2085697625377132  0.3371582952710349  1.0000
  H   H36       1.0  0.6217454585233838  0.7085697627401707  0.16284170470779383  1.0000
  H   H37       1.0  0.46267017825674683  0.763114331152477  0.30994036399182556  1.0000
  H   H38       1.0  0.5373298220835565  0.2631143309500195  0.19005963598465017  1.0000
  H   H39       1.0  0.5373298217653849  0.23688566925243804  0.6900596353120327  1.0000
  H   H40       1.0  0.46267017833877605  0.7368856694548956  0.8099403641734143  1.0000
  C   C1        1.0  0.921372849686117  0.4252332853419692  0.6963072838813761  1.0000
  C   C2        1.0  0.07862715081824496  0.9252332855444266  0.8036927164582771  1.0000
  C   C3        1.0  0.07862715073621578  0.5747667141821395  0.3036927162766884  1.0000
  C   C4        1.0  0.9213728496040876  0.07476671486048833  0.1963072836997874  1.0000
  C   C5        1.0  0.016126316157677047  0.3779668417193116  0.7922999638314349  1.0000
  C   C6        1.0  0.9838736835741614  0.8779668419217692  0.7077000365105715  1.0000
  C   C7        1.0  0.9838736834921322  0.6220331586856035  0.2077000363289826  1.0000
  C   C8        1.0  0.016126316075647795  0.1220331584831459  0.2922999636498461  1.0000
  C   C9        1.0  0.12677553860617788  0.41770321911147923  0.8205233585566163  1.0000
  C   C10       1.0  0.8732244611256607  0.9177032193139367  0.67947664178539  1.0000
  C   C11       1.0  0.8732244610436315  0.5822967812934359  0.1794766416038012  1.0000
  C   C12       1.0  0.12677553852414866  0.08229678109097834  0.32052335837502755  1.0000
  C   C13       1.0  0.941862946345838  0.511141421743206  0.6308683551481669  1.0000
  C   C14       1.0  0.058137053386000524  0.011141421540748422  0.8691316451938395  1.0000
  C   C15       1.0  0.05813705330397131  0.48885857866170906  0.36913164501225065  1.0000
  C   C16       1.0  0.9418629462638087  0.9888585779833604  0.13086835496657803  1.0000
  C   C17       1.0  0.05511300919268949  0.5461973941991829  0.6629363070028177  1.0000
  C   C18       1.0  0.9448869901389481  0.0461973939967254  0.8370636924849824  1.0000
  C   C19       1.0  0.9448869904571199  0.4538026062057321  0.3370636931575997  1.0000
  C   C20       1.0  0.05511300911066027  0.9538026055273833  0.16293630682122898  1.0000
  C   C21       1.0  0.6293807697434723  0.556353635612681  0.5045617776100355  1.0000
  C   C22       1.0  0.3706192295881654  0.056353636291029845  0.9954382218777647  1.0000
  C   C23       1.0  0.3706192295061362  0.44364636391142775  0.4954382216961759  1.0000
  C   C24       1.0  0.629380770061644  0.9436463641138852  0.004561778282652805  1.0000
  C   C25       1.0  0.5595341920863857  0.6054742267824322  0.39621542585728753  1.0000
  C   C26       1.0  0.44046580748139447  0.10547422657997474  0.10378457412154116  1.0000
  C   C27       1.0  0.44046580716322287  0.3945257736224828  0.6037845734489238  1.0000
  C   C28       1.0  0.5595341921684148  0.8945257738249403  0.8962154260388763  1.0000
  C   C29       1.0  0.6523598958982015  0.6217458352541716  0.6030559413483411  1.0000
  C   C30       1.0  0.34764010420595953  0.12174583593252036  0.8969440581371063  1.0000
  C   C31       1.0  0.34764010412393015  0.3782541642699372  0.3969440579555174  1.0000
  C   C32       1.0  0.6523598962163731  0.8782541644723947  0.10305594202095837  1.0000
  C   C33       1.0  0.6067349151721413  0.7340226674678034  0.5910304375026612  1.0000
  C   C34       1.0  0.3932650845596974  0.23402266726534585  0.9089695628393452  1.0000
  C   C35       1.0  0.3932650844776681  0.2659773329371117  0.4089695626577563  1.0000
  C   C36       1.0  0.606734915090112  0.7659773331395692  0.09103043732107244  1.0000
  C   C37       1.0  0.5167832653210263  0.7178761229263599  0.38980736204688965  1.0000
  C   C38       1.0  0.48321673501927714  0.21787612360470873  0.11019263792958614  1.0000
  C   C39       1.0  0.48321673470110554  0.28212387659774885  0.6101926372569688  1.0000
  C   C40       1.0  0.5167832654030555  0.7821238768002065  0.8898073622284784  1.0000
  N   N1        1.0  0.14393431768211176  0.5001980644812264  0.7564341393738805  1.0000
  N   N2        1.0  0.8560656816495259  0.0001980642787688464  0.7435658601139196  1.0000
  N   N3        1.0  0.8560656815674969  0.49980193592368866  0.2435658599323309  1.0000
  N   N4        1.0  0.14393431800028342  0.9998019361261462  0.25643414004649784  1.0000
  N   N5        1.0  0.5415286472533144  0.7791169757200902  0.4860181390282833  1.0000
  N   N6        1.0  0.4584713523144658  0.27911697639843897  0.013981860950545507  1.0000
  N   N7        1.0  0.458471352396495  0.22088302380401853  0.5139818611321343  1.0000
  N   N8        1.0  0.5415286469351427  0.7208830240064761  0.9860181383556659  1.0000
  S   S1        1.0  0.7834488070896268  0.3716364099391751  0.6693285198796973  1.0000
  S   S2        1.0  0.21655119224201078  0.8716364101416326  0.8306714796081028  1.0000
  S   S3        1.0  0.21655119256018243  0.62836359046574  0.33067148028072024  1.0000
  S   S4        1.0  0.7834488070075977  0.1283635902632824  0.16932851969810847  1.0000
  S   S5        1.0  0.6810585984075761  0.41382475839846744  0.5022351548801541  1.0000
  S   S6        1.0  0.3189414016965849  0.913824758600925  0.9977648446052931  1.0000
  S   S7        1.0  0.3189414016145557  0.5861752411256413  0.4977648444237044  1.0000
  S   S8        1.0  0.6810585987257478  0.08617524092318375  0.0022351555527714427  1.0000
  Cl  Cl1       1.0  0.3997283909564053  0.9819053174720681  0.3260550164135604  1.0000
  Cl  Cl2       1.0  0.6002716086113749  0.48190531726961056  0.17394498356526836  1.0000
  Cl  Cl3       1.0  0.600271608693404  0.018094682932846985  0.6739449837468571  1.0000
  Cl  Cl4       1.0  0.39972839103843455  0.5180946831353045  0.8260550165951491  1.0000
  I   I1        1.0  0.6743573019371054  0.09562871162230466  0.4172842711556242  1.0000
  I   I2        1.0  0.32564269763067477  0.5956287118247622  0.08271572882320458  1.0000
  I   I3        1.0  0.32564269731250317  0.9043712879018041  0.5827157281505873  1.0000
  I   I4        1.0  0.6743573020191346  0.4043712885801529  0.9172842713372129  1.0000
  I   I5        1.0  0.9124584429764102  0.1697553154504827  0.5069963608782933  1.0000
  I   I6        1.0  0.08754155635522734  0.6697553156529402  0.9930036386095068  1.0000
  I   I7        1.0  0.08754155627319814  0.8302446849544325  0.49300363842791806  1.0000
  I   I8        1.0  0.9124584432945819  0.3302446847519748  0.006996361550910636  1.0000
  I   I9        1.0  0.16467067929456172  0.24333960945887773  0.593643803231798  1.0000
  I   I10       1.0  0.8353293212098001  0.7433396096613353  0.9063561971078552  1.0000
  I   I11       1.0  0.8353293211277707  0.7566603909460374  0.40635619692626646  1.0000
  I   I12       1.0  0.1646706792125325  0.2566603907435798  0.09364380305020926  1.0000
