data_image0
_chemical_formula_structural       H32C44O6F10S34
_chemical_formula_sum              "H32 C44 O6 F10 S34"
_cell_length_a       6.5721985645658165
_cell_length_b       7.45600499382289
_cell_length_c       34.78648776062376
_cell_angle_alpha    89.57454766286888
_cell_angle_beta     87.58695806542956
_cell_angle_gamma    72.78460730827506

_space_group_name_H-M_alt    "P 1"
_space_group_IT_number       1

loop_
  _space_group_symop_operation_xyz
  'x, y, z'

loop_
  _atom_site_type_symbol
  _atom_site_label
  _atom_site_symmetry_multiplicity
  _atom_site_fract_x
  _atom_site_fract_y
  _atom_site_fract_z
  _atom_site_occupancy
  H   H1        1.0  0.3633645209645605  0.4063219192977637  0.8356566525322322  1.0000
  H   H2        1.0  0.6366354791955594  0.5936780806821171  0.16434334750369053  1.0000
  H   H3        1.0  0.33243031001372336  0.20893496178103954  0.8611732379835336  1.0000
  H   H4        1.0  0.6675696901463966  0.7910650381988413  0.13882676205238922  1.0000
  H   H5        1.0  0.9881920090319697  0.4698177943497099  0.8572678283027468  1.0000
  H   H6        1.0  0.011807991128150114  0.530182205630171  0.14273217173317584  1.0000
  H   H7        1.0  0.0988909596656928  0.6197212579941402  0.8834605894036177  1.0000
  H   H8        1.0  0.9011090404944271  0.3802787419857408  0.11653941063230507  1.0000
  H   H9        1.0  0.9104671477262285  0.12603301308410497  0.2051147614808738  1.0000
  H   H10       1.0  0.08953285243389147  0.873966986895776  0.794885238555049  1.0000
  H   H11       1.0  0.7262169247843843  0.3005139273725966  0.1791692123707251  1.0000
  H   H12       1.0  0.27378307537573543  0.6994860726072845  0.8208307876651977  1.0000
  H   H13       1.0  0.5316891655102266  0.13419250099086039  0.2240643941431725  1.0000
  H   H14       1.0  0.4683108347171426  0.8658074989815675  0.7759356056050232  1.0000
  H   H15       1.0  0.6755666522387394  0.9143839023564255  0.20214477126240465  1.0000
  H   H16       1.0  0.3244333479213807  0.08561609762345537  0.7978552287735181  1.0000
  H   H17       1.0  0.8468879798969665  0.2721564960787776  0.3179430524218014  1.0000
  H   H18       1.0  0.1531120202631534  0.7278435039011033  0.6820569476141214  1.0000
  H   H19       1.0  0.040149454760123285  0.08322131289108578  0.29495127902207746  1.0000
  H   H20       1.0  0.9598505453999967  0.9167786870887951  0.7050487210138452  1.0000
  H   H21       1.0  0.789258939152526  0.883556904875686  0.30068819985684275  1.0000
  H   H22       1.0  0.21074106100759385  0.11644309510419504  0.6993118001790801  1.0000
  H   H23       1.0  0.6788357044230299  0.09250400737079702  0.2744103747580038  1.0000
  H   H24       1.0  0.32116429573709  0.907495992609084  0.7255896252779189  1.0000
  H   H25       1.0  0.2834680149115025  0.21710916731093968  0.6374134399082285  1.0000
  H   H26       1.0  0.7165319852486174  0.7828908326689412  0.36258656012769425  1.0000
  H   H27       1.0  0.3015411362701608  0.4158257936790813  0.6631041539345756  1.0000
  H   H28       1.0  0.698458863889959  0.5841742063007997  0.33689584610134726  1.0000
  H   H29       1.0  0.05344055984671283  0.6281771081656949  0.61702559516491  1.0000
  H   H30       1.0  0.9465594403134069  0.37182289181418615  0.3829744048710127  1.0000
  H   H31       1.0  0.9352314415226802  0.47330203559537054  0.6423090417857589  1.0000
  H   H32       1.0  0.0647685586374397  0.5266979643845104  0.35769095825016395  1.0000
  C   C1        1.0  0.453091609943848  0.23057303070075819  0.010439416024825262  1.0000
  C   C2        1.0  0.5469083902162717  0.7694269692791229  0.9895605840110976  1.0000
  C   C3        1.0  0.511818010519355  0.18322152710893427  0.04744604153584575  1.0000
  C   C4        1.0  0.4881819896407647  0.8167784728709467  0.9525539585000771  1.0000
  C   C5        1.0  0.44318022319545686  0.3261142809619139  0.938634732306335  1.0000
  C   C6        1.0  0.5568197769646629  0.673885719017967  0.06136526772958783  1.0000
  C   C7        1.0  0.23886224286594707  0.33156681795877685  0.9493823365043986  1.0000
  C   C8        1.0  0.7611377572941728  0.668433182021104  0.050617663531524144  1.0000
  C   C9        1.0  0.7141236003502452  0.09372381011727675  0.10996805476401687  1.0000
  C   C10       1.0  0.28587639987712365  0.9062761898551511  0.8900319449841788  1.0000
  C   C11       1.0  0.5050968683960095  0.11620865654588601  0.12043059881740796  1.0000
  C   C12       1.0  0.49490313176411044  0.8837913434339949  0.8795694012185148  1.0000
  C   C13       1.0  0.32553032847267804  0.35636611266730817  0.8640395917416122  1.0000
  C   C14       1.0  0.6744696716874419  0.6436338873125727  0.1359604082943106  1.0000
  C   C15       1.0  0.10594479790139483  0.4728898791829623  0.878586789090876  1.0000
  C   C16       1.0  0.8940552007349971  0.5271101208035013  0.12141321094492827  1.0000
  C   C17       1.0  0.7868572242330818  0.14904571125736946  0.18379733210880894  1.0000
  C   C18       1.0  0.21314277592703793  0.8509542887225114  0.8162026679271139  1.0000
  C   C19       1.0  0.6119520907051085  0.06584387298470021  0.19733069812225293  1.0000
  C   C20       1.0  0.38804790945501144  0.9341561269951808  0.8026693019136699  1.0000
  C   C21       1.0  0.5415735136079269  0.17850845062080015  0.4515904096466066  1.0000
  C   C22       1.0  0.4584264865521927  0.8214915493590809  0.5484095903893161  1.0000
  C   C23       1.0  0.4646023698190724  0.22920023258782243  0.48846858503579144  1.0000
  C   C24       1.0  0.5353976304082968  0.7707997673846053  0.5115314147124043  1.0000
  C   C25       1.0  0.7793498416708676  0.08553955829905029  0.3896884881791847  1.0000
  C   C26       1.0  0.2206501584892523  0.9144604416808306  0.6103115118567382  1.0000
  C   C27       1.0  0.5758771676860863  0.11192254231215046  0.37838734544758085  1.0000
  C   C28       1.0  0.4241228324740336  0.8880774576677304  0.6216126545883419  1.0000
  C   C29       1.0  0.42347696371392135  0.33166345408784015  0.5600279066872442  1.0000
  C   C30       1.0  0.5765230364461985  0.6683365458920407  0.43997209334867865  1.0000
  C   C31       1.0  0.22318542887515772  0.3386359708550411  0.549517444531559  1.0000
  C   C32       1.0  0.7768145712849621  0.6613640291248397  0.4504825555043638  1.0000
  C   C33       1.0  0.9034673250112013  0.118672971355931  0.3157299536995537  1.0000
  C   C34       1.0  0.09653267514891845  0.88132702862395  0.6842700463363691  1.0000
  C   C35       1.0  0.7313271697484969  0.03716631511617253  0.30282128187203755  1.0000
  C   C36       1.0  0.2686728304788722  0.9628336848562554  0.6971787178761581  1.0000
  C   C37       1.0  0.2757776333313052  0.3649714385799081  0.6347477396597491  1.0000
  C   C38       1.0  0.7242223653050869  0.6350285614065554  0.36525226037605524  1.0000
  C   C39       1.0  0.060822288371219245  0.4805613883606651  0.6210008876429278  1.0000
  C   C40       1.0  0.9391777102651729  0.5194386116257983  0.3789991123928765  1.0000
  C   C41       1.0  0.2100922162185602  0.6356277081439096  0.23684297473239427  1.0000
  C   C42       1.0  0.7899077839415596  0.3643722918359713  0.7631570253035285  1.0000
  C   C43       1.0  0.38422380904556463  0.6323020922329237  0.2657646187733131  1.0000
  C   C44       1.0  0.6157761911818046  0.36769790773950417  0.7342353809748826  1.0000
  O   O1        1.0  0.18803638937322517  0.2892754719226774  0.24825375919018208  1.0000
  O   O2        1.0  0.8119636107868947  0.7107245280572035  0.7517462408457406  1.0000
  O   O3        1.0  0.9012021598096375  0.5173809338786335  0.21463684578945272  1.0000
  O   O4        1.0  0.09879784035048224  0.48261906610124755  0.7853631542464701  1.0000
  O   O5        1.0  0.9358151931282016  0.5488470639648145  0.28448418931566005  1.0000
  O   O6        1.0  0.0641848070319181  0.4511529360150664  0.7155158107202627  1.0000
  F   F1        1.0  0.08058708777673543  0.8181892171190754  0.2353943422128926  1.0000
  F   F2        1.0  0.9194129123833844  0.18181078286080546  0.7646056578230301  1.0000
  F   F3        1.0  0.3108562097079458  0.5914035323269703  0.20122371166640426  1.0000
  F   F4        1.0  0.689143790452174  0.4085964676529107  0.7987762883695185  1.0000
  F   F5        1.0  0.485473356909408  0.7608882720955497  0.2554417401590238  1.0000
  F   F6        1.0  0.5145266432507118  0.23911172788433127  0.7445582598768989  1.0000
  F   F7        1.0  0.2992374515285562  0.6762316714546497  0.30198046697099484  1.0000
  F   F8        1.0  0.7007625486315636  0.32376832852523124  0.6980195330649278  1.0000
  F   F9        1.0  0.5292578008000948  0.46068525488696604  0.26650493702656564  1.0000
  F   F10       1.0  0.47074219942727424  0.5393147450854618  0.7334950627216301  1.0000
  S   S1        1.0  0.6324365907961901  0.254411773726769  0.9739689311898132  1.0000
  S   S2        1.0  0.3675634093639296  0.7455882262531119  0.02603106884610954  1.0000
  S   S3        1.0  0.19111871202119976  0.2736990580849553  0.9969745025838839  1.0000
  S   S4        1.0  0.8088812881389201  0.7263009418949256  0.003025497452039014  1.0000
  S   S5        1.0  0.7725366659154833  0.1342913531041716  0.061828780894562105  1.0000
  S   S6        1.0  0.2274633342446365  0.8657086468757093  0.9381712191413607  1.0000
  S   S7        1.0  0.3259436459156083  0.16599651940903767  0.0833837703886644  1.0000
  S   S8        1.0  0.6740563542445116  0.8340034805708433  0.9166162296472583  1.0000
  S   S9        1.0  0.540535225881929  0.37131750735677244  0.8934306148612513  1.0000
  S   S10       1.0  0.4594647742781908  0.6286824926231084  0.10656938517467136  1.0000
  S   S11       1.0  0.014468011748152265  0.3813709191982587  0.9220575710415281  1.0000
  S   S12       1.0  0.9855319884119674  0.6186290807816223  0.0779424289943948  1.0000
  S   S13       1.0  0.9285497383190144  0.03534047535741689  0.14030848013170782  1.0000
  S   S14       1.0  0.07145026184110546  0.9646595246224641  0.8596915199042149  1.0000
  S   S15       1.0  0.38710614625951506  0.11217404597302678  0.16600667600322147  1.0000
  S   S16       1.0  0.6128938539006049  0.887825954006854  0.8339933240327012  1.0000
  S   S17       1.0  0.8112834681412117  0.1221241124641746  0.43833152810003806  1.0000
  S   S18       1.0  0.18871653049518045  0.877875887522289  0.5616684719357662  1.0000
  S   S19       1.0  0.37576192880785575  0.16194096718306444  0.41485846167702023  1.0000
  S   S20       1.0  0.6242380713522642  0.8380590327968165  0.5851415383589026  1.0000
  S   S21       1.0  0.6290056770060573  0.25090097581045073  0.5250110979052467  1.0000
  S   S22       1.0  0.3709943231540626  0.7490990241694302  0.47498890213067607  1.0000
  S   S23       1.0  0.19615541150029558  0.2760708610335803  0.5020785179683138  1.0000
  S   S24       1.0  0.8038445886598243  0.7239291389463006  0.49792148206760894  1.0000
  S   S25       1.0  0.013398005344284229  0.019311411247187375  0.3607827379241763  1.0000
  S   S26       1.0  0.9866019948158355  0.9806885887326936  0.6392172621117465  1.0000
  S   S27       1.0  0.4840954480205756  0.10913247342196519  0.332154101893449  1.0000
  S   S28       1.0  0.5159045506158165  0.8908675265644984  0.6678458981423552  1.0000
  S   S29       1.0  0.5006754774727488  0.3819093817848043  0.6048748600822139  1.0000
  S   S30       1.0  0.49932452268737093  0.6180906181950766  0.3951251399537088  1.0000
  S   S31       1.0  0.9864409165469735  0.3932301071594209  0.5770120681354136  1.0000
  S   S32       1.0  0.013559083680395649  0.6067698928130069  0.42298793161278214  1.0000
  S   S33       1.0  0.0388660787517338  0.47842692414539706  0.24734062490103734  1.0000
  S   S34       1.0  0.9611339214083859  0.5215730758344839  0.7526593751348855  1.0000
