data_image0
_chemical_formula_structural       H108C104N16Cl4
_chemical_formula_sum              "H108 C104 N16 Cl4"
_cell_length_a       11.682316730512522
_cell_length_b       6.940189505504079
_cell_length_c       27.703493995410703
_cell_angle_alpha    90.0
_cell_angle_beta     96.0672230300561
_cell_angle_gamma    90.0

_space_group_name_H-M_alt    "P 1"
_space_group_IT_number       1

loop_
  _space_group_symop_operation_xyz
  'x, y, z'

loop_
  _atom_site_type_symbol
  _atom_site_label
  _atom_site_symmetry_multiplicity
  _atom_site_fract_x
  _atom_site_fract_y
  _atom_site_fract_z
  _atom_site_occupancy
  H   H1        1.0  0.025256512970752237  0.7107256359625498  0.7532168328664152  1.0000
  H   H2        1.0  0.9747434877899467  0.21072563635908637  0.7467831673906545  1.0000
  H   H3        1.0  0.9747434872670718  0.289274363244377  0.24678316731633093  1.0000
  H   H4        1.0  0.025256512447877508  0.7892743642887232  0.25321683279209156  1.0000
  H   H5        1.0  0.11937473001694456  0.8481818177056318  0.7189704181810308  1.0000
  H   H6        1.0  0.8806252697965654  0.34818181810216847  0.78102958171314  1.0000
  H   H7        1.0  0.8806252702208794  0.1518181829421777  0.28102958200171524  1.0000
  H   H8        1.0  0.11937473035003938  0.6518181825456411  0.2189704181066075  1.0000
  H   H9        1.0  0.12265963876154812  0.5874912200547842  0.7173787013526618  1.0000
  H   H10       1.0  0.8773403610519618  0.08749121901043788  0.782621298541509  1.0000
  H   H11       1.0  0.877340361476276  0.4125087805930254  0.2826212988300843  1.0000
  H   H12       1.0  0.12265963823867339  0.9125087801964887  0.21737870127833817  1.0000
  H   H13       1.0  0.9637547583076124  0.413719199990556  0.6772282479771876  1.0000
  H   H14       1.0  0.03624524150589747  0.9137192010349022  0.822771751916983  1.0000
  H   H15       1.0  0.036245241838992304  0.5862807992163708  0.32277175184255974  1.0000
  H   H16       1.0  0.9637547587319267  0.08628079961290736  0.177228248265763  1.0000
  H   H17       1.0  0.8441645935104549  0.5406891594277079  0.6452491385919233  1.0000
  H   H18       1.0  0.15583540630305492  0.040689159824244515  0.8547508613022475  1.0000
  H   H19       1.0  0.15583540663614978  0.4593108397792188  0.3547508612278241  1.0000
  H   H20       1.0  0.8441645929875803  0.9593108393826821  0.1452491385175997  1.0000
  H   H21       1.0  0.8626464811452715  0.5395889502772309  0.7105204688503867  1.0000
  H   H22       1.0  0.13735351866823836  0.039588950673767526  0.789479531043784  1.0000
  H   H23       1.0  0.13735351900133325  0.4604110489296958  0.2894795309693608  1.0000
  H   H24       1.0  0.8626464814783662  0.960411049974042  0.21052046877596334  1.0000
  H   H25       1.0  0.861361773230404  0.8782250376832189  0.7144044353701817  1.0000
  H   H26       1.0  0.13863822658310593  0.3782250366388727  0.785595564523989  1.0000
  H   H27       1.0  0.13863822606023124  0.12177496296459066  0.28559556444966555  1.0000
  H   H28       1.0  0.8613617736547181  0.621774962568054  0.21440443565875694  1.0000
  H   H29       1.0  0.8373040696239907  0.8883007668754177  0.6493324664234226  1.0000
  H   H30       1.0  0.16269593018951925  0.3883007672719545  0.8506675334707482  1.0000
  H   H31       1.0  0.16269593052261405  0.11169923377239174  0.35066753339632484  1.0000
  H   H32       1.0  0.8373040699570855  0.6116992333758552  0.14933246634899927  1.0000
  H   H33       1.0  0.9558502808287407  0.018586022744436742  0.6810939456412531  1.0000
  H   H34       1.0  0.04414971993195822  0.5185860223479001  0.8189060546158164  1.0000
  H   H35       1.0  0.04414971940908347  0.9814139779033728  0.3189060545414928  1.0000
  H   H36       1.0  0.955850280305866  0.4814139768590266  0.18109394556692962  1.0000
  H   H37       1.0  0.0852251127108588  0.8605589638818097  0.6324925464183976  1.0000
  H   H38       1.0  0.9147748871938705  0.36055896427834644  0.8675074538387717  1.0000
  H   H39       1.0  0.9147748866709957  0.13944103532511692  0.36750745376444816  1.0000
  H   H40       1.0  0.08522511304395365  0.6394410363694631  0.1324925463439743  1.0000
  H   H41       1.0  0.9672695963243204  0.7265795603997339  0.6016738259316567  1.0000
  H   H42       1.0  0.03273040348918946  0.2265795607962705  0.8983261739625141  1.0000
  H   H43       1.0  0.0327304029663147  0.27342044024807566  0.3983261738881905  1.0000
  H   H44       1.0  0.9672695967486347  0.773420439851539  0.101673826220232  1.0000
  H   H45       1.0  0.09073801999555425  0.6000350000093455  0.6305606151093855  1.0000
  H   H46       1.0  0.9092619798179558  0.10003500040588222  0.8694393847847851  1.0000
  H   H47       1.0  0.9092619801510504  0.39996499919758116  0.36943938471036175  1.0000
  H   H48       1.0  0.0907380204198685  0.8999650002419273  0.1305606153979609  1.0000
  H   H49       1.0  0.2850920473416563  0.2661840585959363  0.6370080089258282  1.0000
  H   H50       1.0  0.7149079524718537  0.7661840596402825  0.8629919909683426  1.0000
  H   H51       1.0  0.7149079528961678  0.7338159406109904  0.36299199125691783  1.0000
  H   H52       1.0  0.28509204681878153  0.23381594100752703  0.13700800885150463  1.0000
  H   H53       1.0  0.3156707530305732  0.24578029009830435  0.7820689760224111  1.0000
  H   H54       1.0  0.6843292467829367  0.7457802911426505  0.7179310238717597  1.0000
  H   H55       1.0  0.684329247207251  0.7542197091086223  0.21793102416033494  1.0000
  H   H56       1.0  0.315670753363668  0.254219709505159  0.2820689759479878  1.0000
  H   H57       1.0  0.3587561327289777  0.3134564320289397  0.7073721848393121  1.0000
  H   H58       1.0  0.6412438671757515  0.8134564316324031  0.7926278154178573  1.0000
  H   H59       1.0  0.6412438675088463  0.6865435686188698  0.2926278153434339  1.0000
  H   H60       1.0  0.35875613306207266  0.18654356901540647  0.20737218476488878  1.0000
  H   H61       1.0  0.4401112212172775  0.3485412275963936  0.506499341746786  1.0000
  H   H62       1.0  0.5598887785962323  0.848541227199857  0.9935006581473846  1.0000
  H   H63       1.0  0.5598887790205466  0.651458773051416  0.49350065843595997  1.0000
  H   H64       1.0  0.44011122155037236  0.15145877200706967  0.0064993416723627155  1.0000
  H   H65       1.0  0.6077987199243029  0.34539100814162793  0.5825229257952543  1.0000
  H   H66       1.0  0.39220127998042625  0.8453910091859741  0.917477074461915  1.0000
  H   H67       1.0  0.39220128031352114  0.6546089910652988  0.41747707438749165  1.0000
  H   H68       1.0  0.6077987194014283  0.15460899146183543  0.0825229257209308  1.0000
  H   H69       1.0  0.6709761149852518  0.36582567637187235  0.7655609013510611  1.0000
  H   H70       1.0  0.3290238848282581  0.8658256759753357  0.7344390985431096  1.0000
  H   H71       1.0  0.32902388525257237  0.6341743228350543  0.2344390988316849  1.0000
  H   H72       1.0  0.6709761153183466  0.134174323231591  0.26556090127663784  1.0000
  H   H73       1.0  0.9477381635366309  0.1743183812258351  0.6128787947749406  1.0000
  H   H74       1.0  0.05226183627687909  0.6743183808292985  0.8871212051192302  1.0000
  H   H75       1.0  0.05226183575400439  0.8256816194219745  0.38712120504490666  1.0000
  H   H76       1.0  0.947738163960945  0.3256816198185111  0.11287879506351581  1.0000
  H   H77       1.0  0.7416427073830448  0.11151917096589217  0.5867367354177939  1.0000
  H   H78       1.0  0.25835729243046496  0.6115191705693555  0.9132632644763767  1.0000
  H   H79       1.0  0.25835729285477926  0.8884808282410345  0.41326326476495207  1.0000
  H   H80       1.0  0.7416427068601702  0.38848082863757116  0.0867367353434704  1.0000
  H   H81       1.0  0.12545860212696253  0.24655858152618487  0.5997664554748767  1.0000
  H   H82       1.0  0.8745413977777668  0.7465585825705311  0.9002335447822928  1.0000
  H   H83       1.0  0.8745413981108615  0.7534414176807418  0.40023354470786937  1.0000
  H   H84       1.0  0.12545860246005736  0.2534414180772785  0.09976645540045337  1.0000
  H   H85       1.0  0.3627772881172921  0.23578980641698535  0.8721805519837611  1.0000
  H   H86       1.0  0.6372227116962178  0.7357898060204487  0.6278194479104098  1.0000
  H   H87       1.0  0.6372227120293126  0.7642101942308243  0.12781944783598648  1.0000
  H   H88       1.0  0.3627772875944174  0.26421019318647804  0.3721805519094374  1.0000
  H   H89       1.0  0.5647881916000466  0.2880224709159169  0.9079753178043198  1.0000
  H   H90       1.0  0.43521180821346334  0.7880224719602631  0.5920246820898508  1.0000
  H   H91       1.0  0.43521180863777753  0.7119775282910098  0.09202468237842612  1.0000
  H   H92       1.0  0.5647881919331414  0.2119775286875465  0.40797531772989665  1.0000
  H   H93       1.0  0.7171672816231445  0.3571556479883132  0.853689399595687  1.0000
  H   H94       1.0  0.2828327181903655  0.8571556475917764  0.6463106002984838  1.0000
  H   H95       1.0  0.28283271852346026  0.6428443526594964  0.14631060022406045  1.0000
  H   H96       1.0  0.7171672819562392  0.14284435305603302  0.35368939952126366  1.0000
  H   H97       1.0  0.6662849730126735  0.14734021876333894  0.4994184302235904  1.0000
  H   H98       1.0  0.3337150266110565  0.6473402183668022  0.0005815695218334448  1.0000
  H   H99       1.0  0.3337150271339312  0.8526597804435878  0.500581569596157  1.0000
  H   H100      1.0  0.6662849726795788  0.3526597808401244  0.9994184302980138  1.0000
  H   H101      1.0  0.00410023041397384  0.30986916687137367  0.46605279628925594  1.0000
  H   H102      1.0  0.9958997700657258  0.80986916791572  0.033947203456068144  1.0000
  H   H103      1.0  0.9958997697326308  0.690130832335553  0.5339472035304914  1.0000
  H   H104      1.0  0.004100230080879  0.19013083273208964  0.9660527963636794  1.0000
  H   H105      1.0  0.7986954633290381  0.2502772753715809  0.4396633433834018  1.0000
  H   H106      1.0  0.2013045363859114  0.750277276415927  0.06033665672502063  1.0000
  H   H107      1.0  0.2013045369087861  0.7497227238353459  0.5603366567993442  1.0000
  H   H108      1.0  0.7986954629047238  0.2497227242318825  0.9396633430948266  1.0000
  C   C1        1.0  0.06898940666560474  0.7155412206052306  0.720240510857519  1.0000
  C   C2        1.0  0.9310105940038745  0.21554121956088432  0.7797594890365519  1.0000
  C   C3        1.0  0.9310105934809999  0.284458780042579  0.27975948896222835  1.0000
  C   C4        1.0  0.06898940614273005  0.7844587796460424  0.22024051078319548  1.0000
  C   C5        1.0  0.9065996184240412  0.5387598057710994  0.6775893201831772  1.0000
  C   C6        1.0  0.09340038138946861  0.038759806167636045  0.8224106797109936  1.0000
  C   C7        1.0  0.09340038095781325  0.4612401934358273  0.32241067999966855  1.0000
  C   C8        1.0  0.9065996187571361  0.9612401930392908  0.17758932010875392  1.0000
  C   C9        1.0  0.9022917464451711  0.8890925348805483  0.6807775339262886  1.0000
  C   C10       1.0  0.09770825336833883  0.389092533836202  0.8192224659678823  1.0000
  C   C11       1.0  0.09770825370143366  0.11090746576726133  0.319222465893459  1.0000
  C   C12       1.0  0.902291746778266  0.6109074653707247  0.18077753385186515  1.0000
  C   C13       1.0  0.03528410749533973  0.7268042430252967  0.6319586496415791  1.0000
  C   C14       1.0  0.9647158923181702  0.22680424198095045  0.8680413502525917  1.0000
  C   C15       1.0  0.9647158917952955  0.2731957576225129  0.36804135017826806  1.0000
  C   C16       1.0  0.03528410782843459  0.7731957572259762  0.13195864956715583  1.0000
  C   C17       1.0  0.5140230844124254  0.29258940672867284  0.6763288634098799  1.0000
  C   C18       1.0  0.48597691625705397  0.7925894063321361  0.823671136484191  1.0000
  C   C19       1.0  0.48597691573417934  0.7074105939191367  0.3236711364098676  1.0000
  C   C20       1.0  0.5140230838895506  0.2074105928747905  0.1763288633355563  1.0000
  C   C21       1.0  0.4624490244253516  0.3014632148503615  0.6264228341290851  1.0000
  C   C22       1.0  0.5375509753881583  0.8014632144538248  0.8735771657650857  1.0000
  C   C23       1.0  0.5375509757212532  0.698536785797448  0.37357716569066235  1.0000
  C   C24       1.0  0.4624490239024768  0.19853678619398474  0.12642283405476148  1.0000
  C   C25       1.0  0.4895735614632355  0.3001680225515242  0.7671326934211484  1.0000
  C   C26       1.0  0.5104264383502743  0.8001680221549876  0.7328673064730222  1.0000
  C   C27       1.0  0.5104264386833692  0.6998319780962854  0.23286730639859896  1.0000
  C   C28       1.0  0.4895735609403608  0.19983197705193914  0.26713269334682493  1.0000
  C   C29       1.0  0.20895224051571903  0.2948718026182141  0.5377262152595129  1.0000
  C   C30       1.0  0.7910477592977908  0.7948718036625603  0.9622737846346577  1.0000
  C   C31       1.0  0.7910477587749162  0.7051281965887126  0.4622737845603342  1.0000
  C   C32       1.0  0.20895224084881392  0.20512819698524923  0.03772621518508967  1.0000
  C   C33       1.0  0.6352220995798011  0.26180896048428975  0.6814439530113189  1.0000
  C   C34       1.0  0.3647779003249282  0.7618089615286359  0.8185560472458506  1.0000
  C   C35       1.0  0.364777900658023  0.7381910387226369  0.3185560471714272  1.0000
  C   C36       1.0  0.635222099912896  0.23819103911917358  0.18144395293689553  1.0000
  C   C37       1.0  0.4036501681232476  0.26813453127240494  0.7984967058017043  1.0000
  C   C38       1.0  0.5963498316902623  0.7681345308758682  0.7015032940924665  1.0000
  C   C39       1.0  0.5963498320233573  0.7318654693754046  0.20150329401804323  1.0000
  C   C40       1.0  0.4036501676003728  0.23186546977194128  0.29849670572738063  1.0000
  C   C41       1.0  0.45218701988714916  0.3040549207376049  0.7156514389720834  1.0000
  C   C42       1.0  0.5478129799263607  0.8040549203410682  0.7843485609220873  1.0000
  C   C43       1.0  0.5478129794034861  0.6959450799102047  0.2843485608477637  1.0000
  C   C44       1.0  0.45218702022024404  0.19594508030674132  0.21565143889766017  1.0000
  C   C45       1.0  0.32324852171818347  0.30692280784417664  0.5635131333409711  1.0000
  C   C46       1.0  0.676751478951296  0.8069228074476401  0.9364868665530999  1.0000
  C   C47       1.0  0.6767514785196407  0.69307719136275  0.43648686684177496  1.0000
  C   C48       1.0  0.3232485211953088  0.19307719175928667  0.06351313326664748  1.0000
  C   C49       1.0  0.9920927212813968  0.240164652374134  0.5412597503045548  1.0000
  C   C50       1.0  0.007907279388082717  0.7401646534184803  0.9587402495895163  1.0000
  C   C51       1.0  0.007907278956427375  0.7598353468327926  0.4587402498781913  1.0000
  C   C52       1.0  0.9920927207585221  0.2598353472293294  0.04125975023023122  1.0000
  C   C53       1.0  0.4293492159322904  0.330183502652578  0.5446579427292624  1.0000
  C   C54       1.0  0.5706507838812195  0.8301835022560413  0.9553420571649083  1.0000
  C   C55       1.0  0.5706507842143144  0.6698164979952316  0.4553420570904851  1.0000
  C   C56       1.0  0.4293492163566046  0.1698164983917682  0.04465794301783769  1.0000
  C   C57       1.0  0.516144218112963  0.32615550889565975  0.5839116697884108  1.0000
  C   C58       1.0  0.48385578179176636  0.8261555084991231  0.9160883304687587  1.0000
  C   C59       1.0  0.4838557821248612  0.6738444903112669  0.4160883303943353  1.0000
  C   C60       1.0  0.5161442175900881  0.1738444907078036  0.08391166971408714  1.0000
  C   C61       1.0  0.20797667895597577  0.3146079611037095  0.48637463191247093  1.0000
  C   C62       1.0  0.7920233216149433  0.8146079621480556  0.013625368195851853  1.0000
  C   C63       1.0  0.7920233212818483  0.6853920381032172  0.5136253682702752  1.0000
  C   C64       1.0  0.20797667862288088  0.1853920384997539  0.9863746319868941  1.0000
  C   C65       1.0  0.6032988567146625  0.33143105792367444  0.7882035518431143  1.0000
  C   C66       1.0  0.39670114309884746  0.8314310575271379  0.7117964480510565  1.0000
  C   C67       1.0  0.39670114352316166  0.6685689412832523  0.21179644833963177  1.0000
  C   C68       1.0  0.6032988570477573  0.1685689416797889  0.28820355176869095  1.0000
  C   C69       1.0  0.9144378858005948  0.1880267806758138  0.5748052854679048  1.0000
  C   C70       1.0  0.08556211401291505  0.6880267802792772  0.925194714426266  1.0000
  C   C71       1.0  0.08556211349004032  0.8119732185311129  0.4251947143519424  1.0000
  C   C72       1.0  0.9144378861336896  0.31197321892764956  0.07480528539348147  1.0000
  C   C73       1.0  0.7988757161496388  0.15417661277857037  0.5600534569939647  1.0000
  C   C74       1.0  0.201124283663871  0.6541766123820336  0.939946542900206  1.0000
  C   C75       1.0  0.20112428408818525  0.8458233878692393  0.43994654318878135  1.0000
  C   C76       1.0  0.7988757164827337  0.345823386824893  0.060053456919541386  1.0000
  C   C77       1.0  0.11141395332497338  0.26292547466504157  0.560276834915664  1.0000
  C   C78       1.0  0.8885860473445061  0.762925474268505  0.9397231649784071  1.0000
  C   C79       1.0  0.8885860468216314  0.7370745245418852  0.4397231649040835  1.0000
  C   C80       1.0  0.11141395289331803  0.2370745249384218  0.060276835204339026  1.0000
  C   C81       1.0  0.43007195501843826  0.26285827621179614  0.8485895971759171  1.0000
  C   C82       1.0  0.5699280447950716  0.7628582758152594  0.6514104027182538  1.0000
  C   C83       1.0  0.5699280443634163  0.7371417244360133  0.15141040300692876  1.0000
  C   C84       1.0  0.4300719553515331  0.23714172483255005  0.3485895971014937  1.0000
  C   C85       1.0  0.543550748331952  0.29172867951146036  0.8687355255612565  1.0000
  C   C86       1.0  0.45644925148155774  0.7917286791149237  0.6312644743329141  1.0000
  C   C87       1.0  0.4564492510499024  0.7082713196954664  0.13126447462158916  1.0000
  C   C88       1.0  0.543550748665047  0.208271320092003  0.36873552548683336  1.0000
  C   C89       1.0  0.6293135134212895  0.32689859667386956  0.8383430135557804  1.0000
  C   C90       1.0  0.3706864872481899  0.8268985962773329  0.6616569863382905  1.0000
  C   C91       1.0  0.37068648672531523  0.67310140397394  0.16165698626396702  1.0000
  C   C92       1.0  0.6293135129896342  0.17310140437047666  0.3383430138444554  1.0000
  C   C93       1.0  0.7567917400216897  0.1745474412534812  0.5112318353040386  1.0000
  C   C94       1.0  0.24320825988303957  0.6745474408569446  0.9887681649531307  1.0000
  C   C95       1.0  0.24320826021613443  0.8254525593943284  0.48876816487870745  1.0000
  C   C96       1.0  0.756791739498815  0.325452559790865  0.011231835229714996  1.0000
  C   C97       1.0  0.9473975529003195  0.26345879727778354  0.4923190652754341  1.0000
  C   C98       1.0  0.05260244672341053  0.7634587983221298  0.007680934469989719  1.0000
  C   C99       1.0  0.05260244724628526  0.7365412019291432  0.5076809345443133  1.0000
  C   C100      1.0  0.9473975525672247  0.2365412023256798  0.9923190653498575  1.0000
  C   C101      1.0  0.8316043320922453  0.2306267932209361  0.47764386847154844  1.0000
  C   C102      1.0  0.16839566753148477  0.7306267928243995  0.02235613127387543  1.0000
  C   C103      1.0  0.1683956680543595  0.7693732074268734  0.522356131348199  1.0000
  C   C104      1.0  0.8316043317591503  0.2693732078234101  0.9776438685459717  1.0000
  N   N1        1.0  0.9785907268663293  0.7173078308671372  0.6776948382051146  1.0000
  N   N2        1.0  0.021409272947180653  0.2173078312636738  0.8223051616890562  1.0000
  N   N3        1.0  0.021409273280275552  0.2826921697806724  0.32230516161463296  1.0000
  N   N4        1.0  0.9785907264346738  0.7826921693841358  0.1776948384937896  1.0000
  N   N5        1.0  0.345658992358773  0.29120855970822773  0.6132562626316623  1.0000
  N   N6        1.0  0.6543410075459563  0.791208560752574  0.886743737625507  1.0000
  N   N7        1.0  0.6543410078790511  0.708791439498699  0.3867437375510836  1.0000
  N   N8        1.0  0.3456589926918679  0.20879143989523563  0.11325626255723913  1.0000
  N   N9        1.0  0.7340779651396928  0.2307662332173847  0.6842412344581531  1.0000
  N   N10       1.0  0.2659220347650365  0.7307662328208481  0.8157587657990162  1.0000
  N   N11       1.0  0.26592203424216176  0.7692337674304249  0.31575876572469264  1.0000
  N   N12       1.0  0.7340779654727876  0.26923376638607865  0.18424123438372986  1.0000
  N   N13       1.0  0.21303598824992565  0.32991363970452525  0.44461656848290027  1.0000
  N   N14       1.0  0.7869640113738043  0.8299136393079887  0.05538343126252359  1.0000
  N   N15       1.0  0.7869640118966791  0.6700863609432843  0.5553834313368472  1.0000
  N   N16       1.0  0.21303598791683076  0.17008636133982094  0.9446165685573236  1.0000
  Cl  Cl1       1.0  0.1521081422740181  0.21262131802448844  0.6898228400243948  1.0000
  Cl  Cl2       1.0  0.8478918576307112  0.7126213176279518  0.8101771602327746  1.0000
  Cl  Cl3       1.0  0.8478918579638061  0.7873786826233211  0.31017716015835134  1.0000
  Cl  Cl4       1.0  0.15210814175114334  0.2873786815789749  0.18982283995007118  1.0000
