data_image0
_chemical_formula_structural       H44B6C56N2O22
_chemical_formula_sum              "H44 B6 C56 N2 O22"
_cell_length_a       9.582690729159498
_cell_length_b       10.710775565017276
_cell_length_c       14.40815144746377
_cell_angle_alpha    83.69038809239986
_cell_angle_beta     83.73047629072565
_cell_angle_gamma    66.12028365501764

_space_group_name_H-M_alt    "P 1"
_space_group_IT_number       1

loop_
  _space_group_symop_operation_xyz
  'x, y, z'

loop_
  _atom_site_type_symbol
  _atom_site_label
  _atom_site_symmetry_multiplicity
  _atom_site_fract_x
  _atom_site_fract_y
  _atom_site_fract_z
  _atom_site_occupancy
  H   H1        1.0  0.5324632468418856  0.9502505083069527  0.5724523524852935  1.0000
  H   H2        1.0  0.46753675377529225  0.04974949121458617  0.4275476479571509  1.0000
  H   H3        1.0  0.9789262728951987  0.7290254041226569  0.013080839335883528  1.0000
  H   H4        1.0  0.02107372780337311  0.2709745954730129  0.9869191604065024  1.0000
  H   H5        1.0  0.04044140056522642  0.8923815990586119  0.8691369844996026  1.0000
  H   H6        1.0  0.9595585996667231  0.10761840155808086  0.13086301524288044  1.0000
  H   H7        1.0  0.3227814081218678  0.374358001557498  0.20108959832747186  1.0000
  H   H8        1.0  0.6772185910685886  0.625641999054673  0.7989104014150185  1.0000
  H   H9        1.0  0.1633226158319792  0.5474066868850553  0.5782998616471586  1.0000
  H   H10       1.0  0.8366773847851988  0.4525933126364835  0.4217001387952856  1.0000
  H   H11       1.0  0.7410813970522979  0.08702494031299166  0.2812815697363748  1.0000
  H   H12       1.0  0.2589186020567644  0.9129750602250484  0.7187184307061738  1.0000
  H   H13       1.0  0.8957528836016285  0.7178904487619576  0.6086965466658851  1.0000
  H   H14       1.0  0.10424711605545023  0.2821095508291905  0.391303453076508  1.0000
  H   H15       1.0  0.7496099304884875  0.9280967007682212  0.1632164050260618  1.0000
  H   H16       1.0  0.25039007021008436  0.07190329882744893  0.836783594716324  1.0000
  H   H17       1.0  0.3096241286302983  0.22834772063213196  0.08207209482854262  1.0000
  H   H18       1.0  0.6903758704787639  0.7716522799059081  0.9179279056140061  1.0000
  H   H19       1.0  0.8483161392229447  0.09930034178189581  0.4938637861765225  1.0000
  H   H20       1.0  0.15168386092761085  0.900699658760666  0.5061362142660191  1.0000
  H   H21       1.0  0.8486649257590497  0.7981662385483875  0.3127401468922442  1.0000
  H   H22       1.0  0.15133507447289965  0.20183376206830544  0.6872598528502388  1.0000
  H   H23       1.0  0.11798110441571041  0.6289988193554672  0.28190130982540934  1.0000
  H   H24       1.0  0.8820188958162388  0.3710011812612258  0.7180986899170738  1.0000
  H   H25       1.0  0.4346072991405284  0.31049148020588385  0.6612919839137377  1.0000
  H   H26       1.0  0.5653927000499276  0.6895085204062872  0.33870801582875276  1.0000
  H   H27       1.0  0.6446256978058522  0.8827468169327415  0.03672056442165894  1.0000
  H   H28       1.0  0.35537430185122654  0.11725318265840665  0.9632794353207342  1.0000
  H   H29       1.0  0.9792898782578988  0.9819132192619988  0.6381337457044642  1.0000
  H   H30       1.0  0.0207101213991799  0.01808678032914931  0.36186625403792894  1.0000
  H   H31       1.0  0.8634795931878767  0.2717787255941836  0.3157606654141343  1.0000
  H   H32       1.0  0.13652040646920205  0.7282212739969645  0.6842393343282589  1.0000
  H   H33       1.0  0.6580557721111562  0.6575574084016175  0.07570107524820849  1.0000
  H   H34       1.0  0.3419442285060217  0.3424425911199215  0.9242989251942357  1.0000
  H   H35       1.0  0.5654992193948253  0.1896388567215691  0.8059226868744246  1.0000
  H   H36       1.0  0.4345007812223527  0.8103611427999698  0.1940773135680195  1.0000
  H   H37       1.0  0.4872039487571954  0.5567779673913379  0.16289617875292406  1.0000
  H   H38       1.0  0.5127960508998833  0.4432220321998101  0.8371038209894691  1.0000
  H   H39       1.0  0.03593707111305526  0.3734762187775553  0.22826262180516127  1.0000
  H   H40       1.0  0.9640629291188941  0.6265237818391376  0.7717373779373219  1.0000
  H   H41       1.0  0.2061089523689517  0.5994976159533956  0.0791175837108639  1.0000
  H   H42       1.0  0.7938910482482262  0.4005023835681433  0.9208824167315803  1.0000
  H   H43       1.0  0.31239630155127274  0.7893932561081428  0.9655147697624039  1.0000
  H   H44       1.0  0.6876036985992827  0.21060674443441899  0.03448523068013759  1.0000
  B   B1        1.0  0.5511770580946632  0.29451194110259044  0.47780383833567186  1.0000
  B   B2        1.0  0.4488229421372862  0.7054880595141023  0.5221961614068112  1.0000
  B   B3        1.0  0.5502525928207239  0.344479906888808  0.3072628321675145  1.0000
  B   B4        1.0  0.44974740683635483  0.65552009270234  0.6927371675748787  1.0000
  B   B5        1.0  0.327798314951567  0.46989594927162315  0.411801611250973  1.0000
  B   B6        1.0  0.6722016856656109  0.5301040502499158  0.5881983891914713  1.0000
  C   C1        1.0  0.15935581749210173  0.5770093491721281  0.42836270151601435  1.0000
  C   C2        1.0  0.840644182083583  0.42299065034488903  0.571637298926437  1.0000
  C   C3        1.0  0.6625453055955307  0.40741483719941773  0.24654107227323316  1.0000
  C   C4        1.0  0.33745469398015404  0.5925851623175994  0.7534589281692183  1.0000
  C   C5        1.0  0.6325636270969404  0.21366221614907224  0.5674970999532903  1.0000
  C   C6        1.0  0.3674363730536152  0.7863377843934896  0.43250290048925105  1.0000
  C   C7        1.0  0.8577342709940571  0.7682044792862281  0.4621827936392522  1.0000
  C   C8        1.0  0.14226572866302167  0.23179552030491998  0.537817206103141  1.0000
  C   C9        1.0  0.5334858196919195  0.06660750289458106  0.10946544651319563  1.0000
  C   C10       1.0  0.46651417949853674  0.9333924977175899  0.8905345532292946  1.0000
  C   C11       1.0  0.4139054198809482  0.2748885639948855  0.18910038646955085  1.0000
  C   C12       1.0  0.5860945803510011  0.7251114366218073  0.8108996132729323  1.0000
  C   C13       1.0  0.09473680984784194  0.6032063994317548  0.5201383456551827  1.0000
  C   C14       1.0  0.9052631908507299  0.39679360016391513  0.4798616540872033  1.0000
  C   C15       1.0  0.6993786751485929  0.869508885812492  0.4783983236764399  1.0000
  C   C16       1.0  0.3006213250019627  0.1304911147300698  0.5216016767661015  1.0000
  C   C17       1.0  0.6501701775563432  0.11266275911832153  0.23473761003075416  1.0000
  C   C18       1.0  0.34982982267560625  0.8873372414983712  0.765262389711729  1.0000
  C   C19       1.0  0.9459264001223424  0.6977222357882615  0.5374922020353751  1.0000
  C   C20       1.0  0.05407360057622935  0.3022777638074083  0.46250779770701084  1.0000
  C   C21       1.0  0.6527449974691574  0.026067818108081155  0.16962026491246288  1.0000
  C   C22       1.0  0.3472550027627921  0.9739321825086118  0.8303797348300203  1.0000
  C   C23       1.0  0.40920050893520016  0.19289478612477648  0.12306463928096487  1.0000
  C   C24       1.0  0.5907994902552559  0.8071052144873946  0.8769353604615254  1.0000
  C   C25       1.0  0.7859708071231793  0.11912643117323699  0.5622868404564115  1.0000
  C   C26       1.0  0.21402919349399874  0.8808735683483017  0.43771315998603266  1.0000
  C   C27       1.0  0.920028356822788  0.7427903797459238  0.3699902912166532  1.0000
  C   C28       1.0  0.0799716434091611  0.25720962087076915  0.6300097085258298  1.0000
  C   C29       1.0  0.06927890975052915  0.6483074852591937  0.3535534898143082  1.0000
  C   C30       1.0  0.9307210908666488  0.3516925142623452  0.646446510628136  1.0000
  C   C31       1.0  0.7795446458745079  0.08012252156491168  0.7307984510428943  1.0000
  C   C32       1.0  0.22045535435744135  0.9198774790517813  0.26920154869958873  1.0000
  C   C33       1.0  0.5535435657283599  0.2376094307297904  0.6562228669520213  1.0000
  C   C34       1.0  0.4464564344221955  0.7623905698127714  0.34377713349052025  1.0000
  C   C35       1.0  0.857761216367479  0.5227418080598404  0.14760597362630679  1.0000
  C   C36       1.0  0.14223878424969902  0.47725819146169857  0.8523940268161375  1.0000
  C   C37       1.0  0.547013534953791  0.981168378490352  0.03517138825949092  1.0000
  C   C38       1.0  0.45298646423666533  0.018831622121818898  0.9648286114829995  1.0000
  C   C39       1.0  0.859750439810092  0.05326718635760078  0.642662918234305  1.0000
  C   C40       1.0  0.14024955984698648  0.9467328132335474  0.3573370815080881  1.0000
  C   C41       1.0  0.818565896120261  0.3559783803034797  0.2628586808185574  1.0000
  C   C42       1.0  0.18143410307019517  0.6440216203086913  0.7371413189239329  1.0000
  C   C43       1.0  0.7029416464558474  0.5730537246514034  0.12842521221553704  1.0000
  C   C44       1.0  0.29705835424272437  0.42694627494426646  0.8715747875268488  1.0000
  C   C45       1.0  0.9615917705848318  0.5835406146057437  0.10079893170541059  1.0000
  C   C46       1.0  0.03840822964711755  0.4164593860109491  0.8992010680370726  1.0000
  C   C47       1.0  0.6254986091390136  0.17127391935217331  0.7368827940251512  1.0000
  C   C48       1.0  0.3745013904366712  0.8287260801648438  0.26311720641730024  1.0000
  C   C49       1.0  0.6075807202329032  0.5152988381810911  0.17731065609206895  1.0000
  C   C50       1.0  0.39241927942417554  0.484701161410057  0.8226893436503242  1.0000
  C   C51       1.0  0.8523001099997898  0.016604061219428798  0.8194396464255056  1.0000
  C   C52       1.0  0.1476998896572888  0.9833959383717195  0.18056035331688752  1.0000
  C   C53       1.0  0.9154847131310991  0.41214307601274724  0.21449334501039677  1.0000
  C   C54       1.0  0.08451528605935703  0.5878569245994238  0.7855066547320936  1.0000
  C   C55       1.0  0.2320083817396776  0.7429158770086426  0.9936515301662724  1.0000
  C   C56       1.0  0.7679916174507787  0.25708412360352845  0.006348469576217909  1.0000
  N   N1        1.0  0.5343507876239737  0.23649140360203127  0.2423476123392481  1.0000
  N   N2        1.0  0.46564921299320416  0.7635085959195075  0.7576523881031962  1.0000
  O   O1        1.0  0.6211058846683448  0.2649062700721384  0.3911020395965864  1.0000
  O   O2        1.0  0.37889411498873404  0.7350937295190095  0.6088979601458068  1.0000
  O   O3        1.0  0.3953533351355564  0.4471839036280881  0.32377422733988553  1.0000
  O   O4        1.0  0.6046466650963929  0.5528160969886048  0.6762257724025975  1.0000
  O   O5        1.0  0.40559787852852963  0.3980703358760064  0.4898662066885346  1.0000
  O   O6        1.0  0.5944021221700421  0.6019296637196636  0.5101337930538512  1.0000
  O   O7        1.0  0.6426381494961918  0.8737767352381899  0.5662107879341371  1.0000
  O   O8        1.0  0.3573618507357573  0.12622326537850304  0.43378921180834595  1.0000
  O   O9        1.0  0.6268005743450159  0.9445134639325825  0.41203677024716184  1.0000
  O   O10       1.0  0.3731994247640463  0.05548653660545767  0.5879632301953869  1.0000
  O   O11       1.0  0.10148469714326533  0.5330931589882228  0.11420514833452891  1.0000
  O   O12       1.0  0.8985153034739128  0.46690684053331605  0.8857948521079153  1.0000
  O   O13       1.0  0.8978808579976741  0.695251486722544  0.04423118800330673  1.0000
  O   O14       1.0  0.10211914261950387  0.30474851279899473  0.9557688124391376  1.0000
  O   O15       1.0  0.0036477447203544216  0.940519538556538  0.807223589877925  1.0000
  O   O16       1.0  0.9963522555115949  0.05948046206015491  0.19277640986455816  1.0000
  O   O17       1.0  0.7828757094488034  0.03140903926312138  0.8974297964470815  1.0000
  O   O18       1.0  0.21712429116837462  0.9685909602584176  0.10257020399536271  1.0000
  O   O19       1.0  0.10064727631883098  0.7858689082201604  0.9656910803178028  1.0000
  O   O20       1.0  0.8993527233382476  0.21413109137098776  0.03430891942459025  1.0000
  O   O21       1.0  0.28652411410443623  0.6424171823515006  0.05658494151396947  1.0000
  O   O22       1.0  0.7134758861275133  0.35758281826519217  0.9434150582285136  1.0000
