data_image0
_chemical_formula_structural       H36C38N4O14S2
_chemical_formula_sum              "H36 C38 N4 O14 S2"
_cell_length_a       6.27227902079867
_cell_length_b       7.477130177019857
_cell_length_c       19.317693300457858
_cell_angle_alpha    90.09639511275799
_cell_angle_beta     94.13669577733869
_cell_angle_gamma    96.95192171361211

_space_group_name_H-M_alt    "P 1"
_space_group_IT_number       1

loop_
  _space_group_symop_operation_xyz
  'x, y, z'

loop_
  _atom_site_type_symbol
  _atom_site_label
  _atom_site_symmetry_multiplicity
  _atom_site_fract_x
  _atom_site_fract_y
  _atom_site_fract_z
  _atom_site_occupancy
  H   H1        1.0  0.07308920056622027  0.5632354308911948  0.38552130375717636  1.0000
  H   H2        1.0  0.9269107986470769  0.4367645681330704  0.6144786964218536  1.0000
  H   H3        1.0  0.8294204598893476  0.2802152213480194  0.9791661161995241  1.0000
  H   H4        1.0  0.17057953951186328  0.7197847790233238  0.020833883973899493  1.0000
  H   H5        1.0  0.3328346164180658  0.5444057981119967  0.14789768227937575  1.0000
  H   H6        1.0  0.6671653829831452  0.45559420225934644  0.8521023178940479  1.0000
  H   H7        1.0  0.11284357579480664  0.3886745687248222  0.03929386244009224  1.0000
  H   H8        1.0  0.8871564236064043  0.6113254316465211  0.9607061377333314  1.0000
  H   H9        1.0  0.7817272762415023  0.8799832700187794  0.5452184084198735  1.0000
  H   H10       1.0  0.21827272475136253  0.12001673035627902  0.4547815917412109  1.0000
  H   H11       1.0  0.6002565375221731  0.7741904749552985  0.786354841194133  1.0000
  H   H12       1.0  0.39974346187903786  0.2258095254160448  0.2136451589792906  1.0000
  H   H13       1.0  0.25947955864568284  0.05615288503300319  0.7153571421080065  1.0000
  H   H14       1.0  0.7405204423471818  0.9438471153420553  0.28464285805307793  1.0000
  H   H15       1.0  0.37031582367012933  0.6308276649150539  0.6853259914803135  1.0000
  H   H16       1.0  0.6296841757310817  0.3691723354562893  0.31467400869311024  1.0000
  H   H17       1.0  0.01950602992030572  0.03766954752989079  0.6389760774723177  1.0000
  H   H18       1.0  0.9804939693236239  0.9623304528126323  0.36102392218224194  1.0000
  H   H19       1.0  0.3872699079798756  0.5240033936578523  0.5678168740586593  1.0000
  H   H20       1.0  0.6127300912334216  0.4759966053664128  0.43218312612037063  1.0000
  H   H21       1.0  0.5234217702976862  0.6726135905380239  0.5091510557644717  1.0000
  H   H22       1.0  0.47657822910352476  0.3273864098333193  0.4908489444089518  1.0000
  H   H23       1.0  0.27708107843430896  0.9082300812846357  0.5398000814338365  1.0000
  H   H24       1.0  0.7229189225585559  0.09176991909042301  0.46019991872724797  1.0000
  H   H25       1.0  0.12693383962219365  0.741042211750648  0.5853491945195994  1.0000
  H   H26       1.0  0.8730661597790174  0.25895778862069524  0.41465080565382423  1.0000
  H   H27       1.0  0.7634836401865891  0.9586903030062385  0.8620587872345729  1.0000
  H   H28       1.0  0.2365163592146219  0.041309697365104744  0.13794121293885064  1.0000
  H   H29       1.0  0.4993821940863296  0.1968671236151275  0.8105780969307351  1.0000
  H   H30       1.0  0.5006178051269676  0.8031328754091377  0.18942190324829486  1.0000
  H   H31       1.0  0.033693454056933435  0.09710117438380805  0.951628525380063  1.0000
  H   H32       1.0  0.9663065467480173  0.9028988246441725  0.048371474786627594  1.0000
  H   H33       1.0  0.31500717541599255  0.20392399020644897  0.597354290051704  1.0000
  H   H34       1.0  0.6849928239852185  0.7960760101648942  0.40264571012171946  1.0000
  H   H35       1.0  0.5328249785000482  0.22773216483179848  0.6457307735823343  1.0000
  H   H36       1.0  0.46717502230490265  0.772267834196182  0.35426922658435644  1.0000
  C   C1        1.0  0.8259786300854682  0.3668149760640404  0.09958672010048222  1.0000
  C   C2        1.0  0.17402136931574264  0.6331850243073028  0.9004132800729413  1.0000
  C   C3        1.0  0.16154935320600014  0.4977813953214075  0.14580077355861684  1.0000
  C   C4        1.0  0.8384506460379294  0.5022186050211154  0.8541992260959429  1.0000
  C   C5        1.0  0.04068783901149827  0.41664664578289357  0.08719464429133623  1.0000
  C   C6        1.0  0.9593121603897127  0.5833533545884497  0.9128053558820873  1.0000
  C   C7        1.0  0.11680686040762801  0.56833509380305  0.2743220009250736  1.0000
  C   C8        1.0  0.8831931388363015  0.43166490653947287  0.725677998729486  1.0000
  C   C9        1.0  0.6448257161732581  0.2756697082196115  0.055282539026653255  1.0000
  C   C10       1.0  0.35517428307067134  0.7243302921229116  0.9447174606279064  1.0000
  C   C11       1.0  0.039372406140936095  0.5066579429428065  0.20252358380921692  1.0000
  C   C12       1.0  0.9606275930723612  0.49334205608145865  0.797476416369813  1.0000
  C   C13       1.0  0.7467652857516166  0.8646314364034585  0.5994651309091352  1.0000
  C   C14       1.0  0.25323471364959443  0.1353685639678847  0.4005348692642884  1.0000
  C   C15       1.0  0.8354263627956182  0.9161910202400515  0.7221085471963608  1.0000
  C   C16       1.0  0.1645736366055928  0.08380898013129168  0.2778914529770629  1.0000
  C   C17       1.0  0.9850011812660573  0.9968765330948184  0.779059865341733  1.0000
  C   C18       1.0  0.014998819538893666  0.003123465933162056  0.22094013482495764  1.0000
  C   C19       1.0  0.6457146482458567  0.8035775023835318  0.7339461821175632  1.0000
  C   C20       1.0  0.3542853509980729  0.19642249795899122  0.2660538175369964  1.0000
  C   C21       1.0  0.09351148236240298  0.7053328193189871  0.4756976735488006  1.0000
  C   C22       1.0  0.9064885184425481  0.2946671797089935  0.5243023266178901  1.0000
  C   C23       1.0  0.1977748481986303  0.06347342010680612  0.7664990498192925  1.0000
  C   C24       1.0  0.8022251510452992  0.9365265802357169  0.23350094983526715  1.0000
  C   C25       1.0  0.5167889420546943  0.7224686210404312  0.6789840813038496  1.0000
  C   C26       1.0  0.4832110571586028  0.27753137798383404  0.3210159188751802  1.0000
  C   C27       1.0  0.8804858176020511  0.9474599855235604  0.6528219782398567  1.0000
  C   C28       1.0  0.11951418323353202  0.05254001482267791  0.34717802140236376  1.0000
  C   C29       1.0  0.4290477648958424  0.6657301817554591  0.554649045085347  1.0000
  C   C30       1.0  0.5709522359091085  0.3342698172725213  0.4453509550813438  1.0000
  C   C31       1.0  0.22990893187018405  0.7621369405528674  0.5417316975981749  1.0000
  C   C32       1.0  0.7700910675310269  0.23786305981847572  0.4582683025752487  1.0000
  C   C33       1.0  0.9239194073212126  0.009367739160651645  0.8472331381620164  1.0000
  C   C34       1.0  0.07608059351437077  0.9906322611855867  0.15276686148020402  1.0000
  C   C35       1.0  0.33528899034969306  0.14202270358194105  0.8208575999496811  1.0000
  C   C36       1.0  0.6647110088942365  0.857977296760582  0.17914239970487855  1.0000
  C   C37       1.0  0.07570394996204265  0.08957837695772566  0.8977686058149934  1.0000
  C   C38       1.0  0.9242960492818867  0.9104216233847973  0.1022313938395663  1.0000
  N   N1        1.0  0.5702441209560921  0.7514897487164367  0.6129087895634405  1.0000
  N   N2        1.0  0.42975587844511887  0.24851025165490642  0.38709121060998297  1.0000
  N   N3        1.0  0.27691896243973935  0.15772180485543558  0.8858835957224886  1.0000
  N   N4        1.0  0.7230810369614717  0.8422781955159077  0.11411640445093499  1.0000
  O   O1        1.0  0.9809354834922177  0.5303570752013408  0.32130016259598143  1.0000
  O   O2        1.0  0.01906451590899332  0.4696429251700024  0.6786998375774422  1.0000
  O   O3        1.0  0.46494740827792014  0.23601247875215442  0.07599433950281241  1.0000
  O   O4        1.0  0.535052591123291  0.7639875216191888  0.9240056606706112  1.0000
  O   O5        1.0  0.3051943331557061  0.6460801702855379  0.28439912266464784  1.0000
  O   O6        1.0  0.694805666245505  0.35391983008580524  0.7156008775087758  1.0000
  O   O7        1.0  0.6824031923783662  0.2345971014416519  0.9894061110700385  1.0000
  O   O8        1.0  0.31759680861449857  0.7654028989334067  0.010593889091045831  1.0000
  O   O9        1.0  0.16077744795417268  0.5802655637465308  0.43849414201323217  1.0000
  O   O10       1.0  0.839222553038692  0.41973443662852783  0.5615058581478523  1.0000
  O   O11       1.0  0.9295541536916859  0.7798375897305353  0.45975597715355965  1.0000
  O   O12       1.0  0.07044584570952497  0.22016241064080783  0.5402440230198639  1.0000
  O   O13       1.0  0.4380562145963034  0.14281472978548407  0.6144389418601088  1.0000
  O   O14       1.0  0.5619437848049076  0.8571852705858591  0.3855610583133147  1.0000
  S   S1        1.0  0.7770959523121069  0.41778797421351815  0.18314909169030544  1.0000
  S   S2        1.0  0.22290404708910402  0.5822120261578251  0.8168509084831183  1.0000
