data_image0
_chemical_formula_structural       H10C16N2O4I2
_chemical_formula_sum              "H10 C16 N2 O4 I2"
_cell_length_a       4.725676871477534
_cell_length_b       8.499424666389713
_cell_length_c       10.92615742350303
_cell_angle_alpha    100.17724314030723
_cell_angle_beta     103.95612886304787
_cell_angle_gamma    104.53325809197446

_space_group_name_H-M_alt    "P 1"
_space_group_IT_number       1

loop_
  _space_group_symop_operation_xyz
  'x, y, z'

loop_
  _atom_site_type_symbol
  _atom_site_label
  _atom_site_symmetry_multiplicity
  _atom_site_fract_x
  _atom_site_fract_y
  _atom_site_fract_z
  _atom_site_occupancy
  H   H1        1.0  0.615693144380924  0.2590358564030701  0.7916491652981874  1.0000
  H   H2        1.0  0.3843068539227087  0.7409641437479935  0.20835083389296086  1.0000
  H   H3        1.0  0.32987521408745557  0.08590486943601847  0.8943538378406631  1.0000
  H   H4        1.0  0.6701247870008381  0.9140951310606302  0.10564616234359302  1.0000
  H   H5        1.0  0.2475041926221378  0.15208449537716212  0.11478696230391233  1.0000
  H   H6        1.0  0.7524958063362235  0.8479155051111433  0.8852130378615791  1.0000
  H   H7        1.0  0.5557511351743504  0.4351054245062366  0.2670638877837374  1.0000
  H   H8        1.0  0.44424886591394325  0.564894575990412  0.7329361124005188  1.0000
  H   H9        1.0  0.9588970143322421  0.6222251786021931  0.20513737325217066  1.0000
  H   H10       1.0  0.041102984092248857  0.3777748206761094  0.7948626269295134  1.0000
  C   C1        1.0  0.3336893326787866  0.11695258615962088  0.4692682550757381  1.0000
  C   C2        1.0  0.6663106677547785  0.8830474139997859  0.5307317441341748  1.0000
  C   C3        1.0  0.48932605941089863  0.13464931228380755  0.5969759842170176  1.0000
  C   C4        1.0  0.5106739411435248  0.8653506870028382  0.4030240159834311  1.0000
  C   C5        1.0  0.6694140447994265  0.015043804327651457  0.6337065903318684  1.0000
  C   C6        1.0  0.33058595350420616  0.9849561958234121  0.36629340885927986  1.0000
  C   C7        1.0  0.8765602410764257  0.44826895030896646  0.02025033370086562  1.0000
  C   C8        1.0  0.12343975669333661  0.5517310486320941  0.979749665506475  1.0000
  C   C9        1.0  0.4743715204045208  0.19978946729902444  0.9692238274731185  1.0000
  C   C10       1.0  0.5256284785538404  0.800210533189281  0.030776172692373045  1.0000
  C   C11       1.0  0.42361083130250465  0.23884648936873001  0.08969618489838707  1.0000
  C   C12       1.0  0.5763891671219863  0.7611535099095725  0.9103038152832968  1.0000
  C   C13       1.0  0.5992708999627071  0.3940432211112737  0.17495115936676484  1.0000
  C   C14       1.0  0.4007291004708579  0.605956779048133  0.825048839843148  1.0000
  C   C15       1.0  0.8272848994439256  0.49950998002113617  0.14042185674806487  1.0000
  C   C16       1.0  0.17271509832583695  0.5004900189199245  0.8595781424592758  1.0000
  N   N1        1.0  0.6918851910369298  0.3016808201084383  0.9351529596309347  1.0000
  N   N2        1.0  0.30811480792143137  0.6983191803798672  0.06484704053455671  1.0000
  O   O1        1.0  0.4954732187144823  0.25467023266422034  0.6913343957760579  1.0000
  O   O2        1.0  0.504526781839941  0.7453297666224252  0.30866560442439067  1.0000
  O   O3        1.0  0.8102377820863923  0.040312199959248875  0.7506138244746249  1.0000
  O   O4        1.0  0.18976221900190132  0.9596878005373998  0.24938617570963123  1.0000
  I   I1        1.0  0.10083720213615911  0.2859218791326168  0.4170161440673176  1.0000
  I   I2        1.0  0.8991627989521345  0.7140781213640318  0.5829838561169386  1.0000
