data_image0
_chemical_formula_structural       H20C32N4O8I4
_chemical_formula_sum              "H20 C32 N4 O8 I4"
_cell_length_a       8.412185339645585
_cell_length_b       9.562477182751554
_cell_length_c       11.035736128780638
_cell_angle_alpha    102.26414315367171
_cell_angle_beta     101.34481390297569
_cell_angle_gamma    107.65805862960958

_space_group_name_H-M_alt    "P 1"
_space_group_IT_number       1

loop_
  _space_group_symop_operation_xyz
  'x, y, z'

loop_
  _atom_site_type_symbol
  _atom_site_label
  _atom_site_symmetry_multiplicity
  _atom_site_fract_x
  _atom_site_fract_y
  _atom_site_fract_z
  _atom_site_occupancy
  H   H1        1.0  0.27644674217997367  0.22743518986908906  0.29054860105948366  1.0000
  H   H2        1.0  0.7235532574238404  0.7725648106807272  0.7094513984497343  1.0000
  H   H3        1.0  0.8205497247018217  0.3700172585333125  0.6715548823718703  1.0000
  H   H4        1.0  0.1794502749019922  0.6299827420165038  0.32844511713734764  1.0000
  H   H5        1.0  0.09791649580030155  0.3441450903221432  0.38438798389042816  1.0000
  H   H6        1.0  0.9020835038035124  0.6558549102276731  0.6156120156187898  1.0000
  H   H7        1.0  0.15229113202482997  0.5091461205356557  0.6111110275817718  1.0000
  H   H8        1.0  0.8477088687694307  0.4908538800151315  0.38888897193278865  1.0000
  H   H9        1.0  0.4213554962805519  0.5440645096397967  0.7781683276060847  1.0000
  H   H10       1.0  0.5786445033059497  0.45593549015467305  0.2218316728745875  1.0000
  H   H11       1.0  0.6066709147428239  0.3953020577833547  0.7208710532221575  1.0000
  H   H12       1.0  0.39332908605143685  0.6046979427674326  0.2791289462924028  1.0000
  H   H13       1.0  0.9511481347945874  0.20229130296920209  0.5920988434222294  1.0000
  H   H14       1.0  0.048851864809226535  0.7977086975806141  0.40790115608698846  1.0000
  H   H15       1.0  0.8543647359372925  0.9875560957019939  0.3850350029828196  1.0000
  H   H16       1.0  0.14563526328915902  0.012443903752245413  0.6149649965317998  1.0000
  H   H17       1.0  0.5496128232599113  0.910153778484994  0.24299499066783822  1.0000
  H   H18       1.0  0.450387176703953  0.0898462224050529  0.7570050098074325  1.0000
  H   H19       1.0  0.36100175562758285  0.04832081948950117  0.3103700638610672  1.0000
  H   H20       1.0  0.6389982439589189  0.9516791803049689  0.689629936619605  1.0000
  C   C1        1.0  0.9786399540969666  0.00828749324933361  0.8676310338856782  1.0000
  C   C2        1.0  0.021360047057344476  0.9917125076416843  0.1323689665949349  1.0000
  C   C3        1.0  0.11951036430221042  0.12394340605208806  0.9708585750242361  1.0000
  C   C4        1.0  0.8804896364747381  0.876056593743353  0.029141425461778604  1.0000
  C   C5        1.0  0.1430303357322138  0.1217311792820128  0.097148343193329  1.0000
  C   C6        1.0  0.856969663854288  0.878268820512457  0.9028516572873433  1.0000
  C   C7        1.0  0.14302165100137015  0.6324543507479693  0.08832585056450665  1.0000
  C   C8        1.0  0.8569783485851316  0.3675456490465006  0.9116741499161656  1.0000
  C   C9        1.0  0.10058201025419446  0.6177296763940058  0.952482821099883  1.0000
  C   C10       1.0  0.8994179893496196  0.3822703241558104  0.047517178409335045  1.0000
  C   C11       1.0  0.9660396660371562  0.4935375922228963  0.8650194483431317  1.0000
  C   C12       1.0  0.03396033392670825  0.5064624086671506  0.13498055213213903  1.0000
  C   C13       1.0  0.45432745991119317  0.29651538058765337  0.5215865949055072  1.0000
  C   C14       1.0  0.545672540505705  0.7034846188675571  0.4784134046144548  1.0000
  C   C15       1.0  0.2078707025778584  0.357733718151019  0.46313183717892126  1.0000
  C   C16       1.0  0.7921292970259556  0.6422662823987972  0.5368681623302968  1.0000
  C   C17       1.0  0.23969552807673447  0.45062391907908605  0.5874846047351324  1.0000
  C   C18       1.0  0.7603044715097673  0.5493760807153838  0.41251539574553986  1.0000
  C   C19       1.0  0.38765584366963096  0.4677622123501919  0.6809184234896084  1.0000
  C   C20       1.0  0.6123441555568204  0.5322377871040475  0.319081576025011  1.0000
  C   C21       1.0  0.49450009940644607  0.388395653728588  0.6484358573907574  1.0000
  C   C22       1.0  0.5054999001800556  0.611604346065882  0.3515641430899148  1.0000
  C   C23       1.0  0.5612169070997794  0.2078615238079547  0.4806446699363425  1.0000
  C   C24       1.0  0.438783092126672  0.7921384756462847  0.5193553295782769  1.0000
  C   C25       1.0  0.8233189328854339  0.16682331703229364  0.5241464987265851  1.0000
  C   C26       1.0  0.17668106753146423  0.8331766824229169  0.47585350079337674  1.0000
  C   C27       1.0  0.7682149695620827  0.04648918530584604  0.4110343438574483  1.0000
  C   C28       1.0  0.23178503159222835  0.9535108155851718  0.5889656566231648  1.0000
  C   C29       1.0  0.600717559759039  0.005237866912581333  0.3315036719914055  1.0000
  C   C30       1.0  0.39928244139527197  0.9947621339784364  0.6684963284892076  1.0000
  C   C31       1.0  0.49511273398423084  0.0843690438013892  0.36760825523330826  1.0000
  C   C32       1.0  0.5048872664326673  0.9156309556538212  0.6323917442866537  1.0000
  N   N1        1.0  0.3131081564687625  0.28461245553729947  0.4308714294347201  1.0000
  N   N2        1.0  0.6868918439481355  0.7153875439179108  0.5691285700852418  1.0000
  N   N3        1.0  0.724446419291622  0.24708942912838225  0.5569233449464093  1.0000
  N   N4        1.0  0.27555357993482954  0.7529105703258572  0.4430766545682102  1.0000
  O   O1        1.0  0.946656440945674  0.006806638432402824  0.7524858272105525  1.0000
  O   O2        1.0  0.05334355864082775  0.9931933613620672  0.24751417327011982  1.0000
  O   O3        1.0  0.2702622711410169  0.22800880009817157  0.1904186608745972  1.0000
  O   O4        1.0  0.7297377284454849  0.7719911996962985  0.8095813396060751  1.0000
  O   O5        1.0  0.263977144006532  0.7406078777796159  0.1716990788695536  1.0000
  O   O6        1.0  0.7360228555799696  0.25939212201485395  0.8283009216111186  1.0000
  O   O7        1.0  0.9260752691015498  0.47696289664213276  0.7411363072741773  1.0000
  O   O8        1.0  0.0739247320527612  0.523037104248885  0.25886369320643576  1.0000
  I   I1        1.0  0.2919027316967196  0.2992896725709096  0.9238719372977334  1.0000
  I   I2        1.0  0.7080972675297319  0.7007103268833298  0.0761280622168861  1.0000
  I   I3        1.0  0.26032314017612723  0.7860100054640359  0.8903396591877291  1.0000
  I   I4        1.0  0.7396768594103743  0.21398999433043397  0.10966034129294312  1.0000
