data_image0
_chemical_formula_structural       H20C32N4O8I4
_chemical_formula_sum              "H20 C32 N4 O8 I4"
_cell_length_a       8.391940132722214
_cell_length_b       9.567149236502456
_cell_length_c       11.048236748989819
_cell_angle_alpha    102.09939984129221
_cell_angle_beta     101.42986075743278
_cell_angle_gamma    107.5771583668191

_space_group_name_H-M_alt    "P 1"
_space_group_IT_number       1

loop_
  _space_group_symop_operation_xyz
  'x, y, z'

loop_
  _atom_site_type_symbol
  _atom_site_label
  _atom_site_symmetry_multiplicity
  _atom_site_fract_x
  _atom_site_fract_y
  _atom_site_fract_z
  _atom_site_occupancy
  H   H1        1.0  0.1810137970856165  0.13317569230773507  0.3280874653265423  1.0000
  H   H2        1.0  0.8189862033907914  0.8668243082857282  0.6719125338001606  1.0000
  H   H3        1.0  0.7252097793351411  0.2735607218338567  0.7086837772322646  1.0000
  H   H4        1.0  0.2747902199318956  0.7264392780037516  0.2913162228599421  1.0000
  H   H5        1.0  0.04868872601875646  0.29951936107063554  0.40700910355193903  1.0000
  H   H6        1.0  0.9513112744409424  0.700480638766081  0.5929908965455226  1.0000
  H   H7        1.0  0.14351464838302122  0.5115982119201963  0.6146209697764052  1.0000
  H   H8        1.0  0.8564853520766778  0.48840178791652034  0.38537903032105636  1.0000
  H   H9        1.0  0.4491255410098859  0.5891181571165766  0.7567831088457853  1.0000
  H   H10       1.0  0.5508744594498132  0.41088184272014  0.24321689125167642  1.0000
  H   H11       1.0  0.639413804030378  0.45258603090275623  0.6899187625962006  1.0000
  H   H12       1.0  0.360586196429321  0.5474139689339604  0.3100812375012611  1.0000
  H   H13       1.0  0.9035106422063277  0.15568062614304004  0.6157118610356301  1.0000
  H   H14       1.0  0.09648935706070906  0.8443193736945683  0.38428813905657655  1.0000
  H   H15       1.0  0.8477653202950177  0.9896271936401861  0.3901208408654867  1.0000
  H   H16       1.0  0.15223468054270023  0.010372807290749686  0.6098791592255846  1.0000
  H   H17       1.0  0.579316281106946  0.9569928372291849  0.2227230890297849  1.0000
  H   H18       1.0  0.4206837181600908  0.04300716260842333  0.7772769110624219  1.0000
  H   H19       1.0  0.39461441593356306  0.107115129390131  0.2790345716899325  1.0000
  H   H20       1.0  0.6053855841648259  0.892884870109113  0.7209654274431608  1.0000
  C   C1        1.0  0.9008871398464353  0.8833723350372428  0.04891335892524886  1.0000
  C   C2        1.0  0.09911286061326365  0.11662766479947388  0.9510866411722128  1.0000
  C   C3        1.0  0.035346854599110245  0.008162803029122256  0.13519707379886525  1.0000
  C   C4        1.0  0.9646531458605887  0.9918371968075942  0.8648029262985962  1.0000
  C   C5        1.0  0.14311795862034052  0.13327229236171978  0.08705915742384858  1.0000
  C   C6        1.0  0.8568820418393585  0.8667277074749968  0.9129408426736131  1.0000
  C   C7        1.0  0.1202725456242621  0.6240227835780079  0.9713760027427333  1.0000
  C   C8        1.0  0.8797274552134557  0.375977217352928  0.028623997348337954  1.0000
  C   C9        1.0  0.979228063904019  0.5090819652047877  0.868194884394907  1.0000
  C   C10       1.0  0.0207719365556801  0.4909180346319289  0.13180511570255474  1.0000
  C   C11       1.0  0.8568017698834977  0.3786834535121266  0.9025980303021789  1.0000
  C   C12       1.0  0.14319823057620135  0.62131654632459  0.09740196979528266  1.0000
  C   C13       1.0  0.17655491977015453  0.33469156770117964  0.4752300610122367  1.0000
  C   C14       1.0  0.8234450810675632  0.6653084332297562  0.5247699390788344  1.0000
  C   C15       1.0  0.23084541068653444  0.4537705478344177  0.5885935200194528  1.0000
  C   C16       1.0  0.7691545901511834  0.5462294530965179  0.41140648007161834  1.0000
  C   C17       1.0  0.398795961310936  0.49487116681637466  0.6681292427298693  1.0000
  C   C18       1.0  0.6012040379561008  0.5051288330212337  0.33187075736233745  1.0000
  C   C19       1.0  0.5052971547849293  0.4165293035429532  0.6321623194870698  1.0000
  C   C20       1.0  0.4947028444821075  0.5834706962946552  0.367837680605137  1.0000
  C   C21       1.0  0.4399137837477293  0.2940204833745103  0.5190825453722098  1.0000
  C   C22       1.0  0.5600862155193075  0.7059795164630981  0.48091745471999703  1.0000
  C   C23       1.0  0.7935288570699471  0.14274117795805882  0.5370333113026926  1.0000
  C   C24       1.0  0.20647114302844197  0.8572588215411853  0.46296668783040085  1.0000
  C   C25       1.0  0.7610343579836061  0.04951167555352172  0.41306895714826863  1.0000
  C   C26       1.0  0.23896564128343056  0.9504883242840866  0.5869310429439379  1.0000
  C   C27       1.0  0.6133268032764364  0.03375847703459199  0.319555405485223  1.0000
  C   C28       1.0  0.3866731971832626  0.9662415228021246  0.6804445946122386  1.0000
  C   C29       1.0  0.5068584349420661  0.11390242954629791  0.35168347233838315  1.0000
  C   C30       1.0  0.49314156432497075  0.8860975702913105  0.6483165277538236  1.0000
  C   C31       1.0  0.5472266820645288  0.20555348043620067  0.4782346577403527  1.0000
  C   C32       1.0  0.4527733183951702  0.7944465194005159  0.5217653423571089  1.0000
  N   N1        1.0  0.2766339785254913  0.2555098402310974  0.442495192124422  1.0000
  N   N2        1.0  0.7233660211195645  0.7444901607007303  0.5575048079613943  1.0000
  N   N3        1.0  0.6887748075135363  0.2169288546079757  0.5688244050183153  1.0000
  N   N4        1.0  0.3112251925848527  0.7830711448912683  0.431175594114778  1.0000
  O   O1        1.0  0.0758829888645977  0.025691548383927607  0.25906879183408965  1.0000
  O   O2        1.0  0.9241170115951013  0.9743084514527889  0.740931208263372  1.0000
  O   O3        1.0  0.26421510278242794  0.2423828323062932  0.16902831721428827  1.0000
  O   O4        1.0  0.7357848976772711  0.7576171675304234  0.8309716828831734  1.0000
  O   O5        1.0  0.9477128976820989  0.5087882924099085  0.7534177086832683  1.0000
  O   O6        1.0  0.05228710277760014  0.4912117074268081  0.24658229141419333  1.0000
  O   O7        1.0  0.7300660778119329  0.2729952431883893  0.8089161837619657  1.0000
  O   O8        1.0  0.26993392228645613  0.7270047563108548  0.19108381537112776  1.0000
  I   I1        1.0  0.7441914244837776  0.7165952169180394  0.11409817545387475  1.0000
  I   I2        1.0  0.2558085759759215  0.2834047829186774  0.885901824643587  1.0000
  I   I3        1.0  0.2928962454311383  0.7995872869609355  0.9244483833965228  1.0000
  I   I4        1.0  0.7071037550285608  0.20041271287578127  0.07555161670093895  1.0000
