data_image0
_chemical_formula_structural       H140C118N16O6Cl6
_chemical_formula_sum              "H140 C118 N16 O6 Cl6"
_cell_length_a       11.63691761447346
_cell_length_b       14.355496019270886
_cell_length_c       15.84753655238039
_cell_angle_alpha    103.26499236515727
_cell_angle_beta     95.25017971748204
_cell_angle_gamma    94.33120152316404

_space_group_name_H-M_alt    "P 1"
_space_group_IT_number       1

loop_
  _space_group_symop_operation_xyz
  'x, y, z'

loop_
  _atom_site_type_symbol
  _atom_site_label
  _atom_site_symmetry_multiplicity
  _atom_site_fract_x
  _atom_site_fract_y
  _atom_site_fract_z
  _atom_site_occupancy
  H   H1        1.0  0.7784153976562581  0.5176546461079794  0.8915380710454123  1.0000
  H   H2        1.0  0.22158460239758435  0.48234535395127015  0.10846192892376876  1.0000
  H   H3        1.0  0.7321480469339424  0.6049750414068303  0.9758724449579337  1.0000
  H   H4        1.0  0.26785195311990007  0.3950249586524192  0.02412755501124725  1.0000
  H   H5        1.0  0.6406562777859122  0.5587978423468717  0.8785968350991126  1.0000
  H   H6        1.0  0.3593437222679304  0.4412021577123779  0.12140316487006847  1.0000
  H   H7        1.0  0.42432838268128376  0.36363758710774063  0.8067898761799652  1.0000
  H   H8        1.0  0.5756716173725587  0.636362412951509  0.1932101237892158  1.0000
  H   H9        1.0  0.47210793219539765  0.48719560259095507  0.8403094214486131  1.0000
  H   H10       1.0  0.5278920677878802  0.5128043967687633  0.15969057851690416  1.0000
  H   H11       1.0  0.7022735853325817  0.3120337399258345  0.8109191171368731  1.0000
  H   H12       1.0  0.29772641472126066  0.6879662601334151  0.18908088283230778  1.0000
  H   H13       1.0  0.8019230601404596  0.3362196929433702  0.6629909975433731  1.0000
  H   H14       1.0  0.19807693991338282  0.6637803071158793  0.33700900242580784  1.0000
  H   H15       1.0  0.5082319719789152  0.4900167698073486  0.6873106329093354  1.0000
  H   H16       1.0  0.49176802800436253  0.5099832295523696  0.31268936705618183  1.0000
  H   H17       1.0  0.34897711218827027  0.22353853050137187  0.9410576148703719  1.0000
  H   H18       1.0  0.6510228878655722  0.7764614695578776  0.058942385098809204  1.0000
  H   H19       1.0  0.39970568816631946  0.23563617038574086  0.8423314174309733  1.0000
  H   H20       1.0  0.600294311887523  0.7643638296735088  0.1576685825382077  1.0000
  H   H21       1.0  0.31833366765050214  0.32286783161715316  0.8985654644569736  1.0000
  H   H22       1.0  0.6816663324033403  0.6771321684420964  0.10143453551220746  1.0000
  H   H23       1.0  0.6119607019904761  0.35984173871987535  0.21086675339343883  1.0000
  H   H24       1.0  0.3880392979928017  0.6401582606398429  0.7891332465720783  1.0000
  H   H25       1.0  0.7317381851562839  0.4425733531341547  0.211936448426312  1.0000
  H   H26       1.0  0.26826181491713325  0.5574266463928794  0.7880635521916002  1.0000
  H   H27       1.0  0.7421025487401154  0.3176230870173142  0.17558071663159336  1.0000
  H   H28       1.0  0.25789745131372704  0.6823769130419355  0.8244192833375876  1.0000
  H   H29       1.0  0.4513076152195828  0.2956836902359039  0.1437610152148859  1.0000
  H   H30       1.0  0.5486923848342599  0.7043163098233457  0.8562389847542952  1.0000
  H   H31       1.0  0.40199473146026715  0.215738122772271  0.04520221794313209  1.0000
  H   H32       1.0  0.5980052685935753  0.7842618772869786  0.9547977820260489  1.0000
  H   H33       1.0  0.4605756771062662  0.17921387102273204  0.3080775808436498  1.0000
  H   H34       1.0  0.5394243229475761  0.8207861290365175  0.6919224191255313  1.0000
  H   H35       1.0  0.42912749839731273  0.259139938102515  0.2429762588928525  1.0000
  H   H36       1.0  0.5708725016565297  0.7408600619567347  0.7570237410763285  1.0000
  H   H37       1.0  0.5598183595694872  0.28006085233079325  0.31358894910057883  1.0000
  H   H38       1.0  0.4401816404843552  0.7199391477284564  0.6864110508686022  1.0000
  H   H39       1.0  0.7203692194778987  0.054604155877290006  0.33010607913889845  1.0000
  H   H40       1.0  0.2796307805759439  0.9453958441819598  0.6698939208302828  1.0000
  H   H41       1.0  0.6404567555795287  0.15310824551671054  0.35911259854453254  1.0000
  H   H42       1.0  0.35954324370477614  0.8468917547125597  0.6408874020719427  1.0000
  H   H43       1.0  0.4991532579791104  0.11012989635572425  0.4500838771457765  1.0000
  H   H44       1.0  0.5008467420041672  0.8898701030039939  0.5499161228197406  1.0000
  H   H45       1.0  0.3614978621965829  0.8315597948786999  0.31246101311268526  1.0000
  H   H46       1.0  0.6385021369975825  0.16844020518325467  0.6875389868513949  1.0000
  H   H47       1.0  0.5339922394844073  0.896879353322418  0.22390760322542036  1.0000
  H   H48       1.0  0.46600776056943516  0.10312064673683165  0.7760923967437606  1.0000
  H   H49       1.0  0.8523303632247877  0.9932332557196925  0.20777134747148707  1.0000
  H   H50       1.0  0.14766963682905468  0.00676674433955714  0.7922286524976939  1.0000
  H   H51       1.0  0.7651072643338893  0.900742737332664  0.1305286352995492  1.0000
  H   H52       1.0  0.23489273571995314  0.09925726272658567  0.8694713646696318  1.0000
  H   H53       1.0  0.7287461932066819  0.9355282367108887  0.2374021301197971  1.0000
  H   H54       1.0  0.2712538068471606  0.06447176334836092  0.7625978698493838  1.0000
  H   H55       1.0  0.5005765350933621  0.14090476216789352  0.94043451259283  1.0000
  H   H56       1.0  0.49942346496048035  0.8590952378913561  0.05956548737635109  1.0000
  H   H57       1.0  0.5845136887762156  0.044374462326983916  0.9127160474620829  1.0000
  H   H58       1.0  0.4154863104179498  0.9556255377349706  0.08728395250199725  1.0000
  H   H59       1.0  0.6503252222340745  0.16365539949079513  0.9322856132844459  1.0000
  H   H60       1.0  0.3496747778197678  0.8363446005684544  0.06771438668473502  1.0000
  H   H61       1.0  0.6851745965698445  0.9418794074578795  0.9559499752019093  1.0000
  H   H62       1.0  0.31482540348399796  0.05812059260137008  0.044050024767271656  1.0000
  H   H63       1.0  0.802991623508336  0.9452408561793083  0.0343319079111867  1.0000
  H   H64       1.0  0.19700837654550643  0.05475914387994137  0.9656680920579943  1.0000
  H   H65       1.0  0.6452527055489403  0.9788088369574078  0.7950298603553656  1.0000
  H   H66       1.0  0.3547472945049021  0.021191163101841763  0.20497013961381538  1.0000
  H   H67       1.0  0.7078275088856918  0.8914349628232826  0.8415215237244343  1.0000
  H   H68       1.0  0.29217249116815064  0.108565037235967  0.15847847624474662  1.0000
  H   H69       1.0  0.755515293051479  0.9158812267528718  0.7463894961097626  1.0000
  H   H70       1.0  0.24448470700236336  0.08411877330637768  0.2536105038594184  1.0000
  H   H71       1.0  0.786384472382598  0.03230274719467654  0.6978812772287679  1.0000
  H   H72       1.0  0.21361552767124442  0.9676972528645731  0.3021187227404131  1.0000
  H   H73       1.0  0.8845114231026981  0.13323366205239695  0.7060723039400222  1.0000
  H   H74       1.0  0.11548857695114424  0.8667663380068527  0.29392769602915886  1.0000
  H   H75       1.0  0.025152553198095482  0.09812262829234177  0.6040324894299549  1.0000
  H   H76       1.0  0.9748474468557471  0.901877371766908  0.39596751053922613  1.0000
  H   H77       1.0  0.09916477674870684  0.8186152009959139  0.6166822820979382  1.0000
  H   H78       1.0  0.9008352225355981  0.1813847992333566  0.38331771851853713  1.0000
  H   H79       1.0  0.933744267012378  0.8761993087598882  0.7275072163639897  1.0000
  H   H80       1.0  0.06625573304146447  0.12380069129936142  0.27249278360519125  1.0000
  H   H81       1.0  0.993268655763517  0.25650739477253004  0.7934365937374827  1.0000
  H   H82       1.0  0.0067313442903253725  0.7434926052867195  0.20656340623169836  1.0000
  H   H83       1.0  0.08161259580321097  0.16195245210841414  0.7678951437574317  1.0000
  H   H84       1.0  0.9183874042506315  0.8380475479508355  0.23210485621174923  1.0000
  H   H85       1.0  0.12109024565340014  0.2544819146036245  0.8619851726472357  1.0000
  H   H86       1.0  0.8789097544004424  0.745518085455625  0.13801482732194525  1.0000
  H   H87       1.0  0.8856464565683199  0.17070212297398416  0.14003156750493037  1.0000
  H   H88       1.0  0.11435354348552251  0.8292978770852654  0.8599684324642507  1.0000
  H   H89       1.0  0.031557077741403115  0.15161686937290966  0.12584608190263347  1.0000
  H   H90       1.0  0.9684429223124393  0.8483831306863399  0.8741539180665474  1.0000
  H   H91       1.0  0.9287380076963928  0.052869690959249246  0.11667107692935993  1.0000
  H   H92       1.0  0.07126199235744936  0.9471303091000003  0.883328923039821  1.0000
  H   H93       1.0  0.14532492993725288  0.2126931662778137  0.051531665215934906  1.0000
  H   H94       1.0  0.8546750701165895  0.7873068337814358  0.9484683347532461  1.0000
  H   H95       1.0  0.12588262386195417  0.2837580466055911  0.9775255683558959  1.0000
  H   H96       1.0  0.8741173761918882  0.7162419534536584  0.022474431613285138  1.0000
  H   H97       1.0  0.19777274704861422  0.23460798299327185  0.16385345050609734  1.0000
  H   H98       1.0  0.8022272521455511  0.7653920170686828  0.8361465494579828  1.0000
  H   H99       1.0  0.16148101592712316  0.27635531735713514  0.2706741634628153  1.0000
  H   H100      1.0  0.8385189841267191  0.7236446827021144  0.7293258365063656  1.0000
  H   H101      1.0  0.26041021592857716  0.34714411479376894  0.22753282283058884  1.0000
  H   H102      1.0  0.7395897841252652  0.6528558852654807  0.7724671771385921  1.0000
  H   H103      1.0  0.18291049886578453  0.4308997385835986  0.3382472282126742  1.0000
  H   H104      1.0  0.8170895011880578  0.569100261475651  0.6617527717565068  1.0000
  H   H105      1.0  0.09968788664126874  0.5281691599903535  0.359090841795288  1.0000
  H   H106      1.0  0.9003121133420091  0.4718308393693647  0.640909158170229  1.0000
  H   H107      1.0  0.16181823267966924  0.4187569881476336  0.495147440698211  1.0000
  H   H108      1.0  0.8381817673741732  0.5812430119116161  0.5048525592709701  1.0000
  H   H109      1.0  0.8049176845213274  0.3351502599925403  0.47738764985630255  1.0000
  H   H110      1.0  0.19508231553251512  0.6648497400667094  0.5226123501128784  1.0000
  H   H111      1.0  0.855715460438625  0.37620466902223776  0.3200527287152974  1.0000
  H   H112      1.0  0.14428453961521737  0.6237953310370119  0.6799472712538837  1.0000
  H   H113      1.0  0.9342224519708195  0.6303496551956055  0.2520965577257095  1.0000
  H   H114      1.0  0.06577754808302283  0.3696503448636441  0.7479034422434715  1.0000
  H   H115      1.0  0.9580778174230583  0.576331769953644  0.3404063291908576  1.0000
  H   H116      1.0  0.0419221826307841  0.4236682301056056  0.6595936707783234  1.0000
  H   H117      1.0  0.8226179640899467  0.556095056520856  0.2779199656787042  1.0000
  H   H118      1.0  0.17738203596389568  0.44390494353839366  0.7220800342904768  1.0000
  H   H119      1.0  0.9778026744982473  0.3453488882094124  0.9259323004333253  1.0000
  H   H120      1.0  0.022197325555595053  0.6546511118498372  0.07406769953585565  1.0000
  H   H121      1.0  0.8804373658296244  0.43228059663724044  0.9511823261815198  1.0000
  H   H122      1.0  0.11956263422421798  0.5677194034220091  0.04881767378766119  1.0000
  H   H123      1.0  0.8355837718489597  0.3096793832406968  0.9443052590010464  1.0000
  H   H124      1.0  0.16441622820488278  0.6903206168185528  0.05569474096813464  1.0000
  H   H125      1.0  0.7875630373266542  0.5616237774768974  0.14857148847543486  1.0000
  H   H126      1.0  0.2124369627271884  0.43837622258235226  0.8514285114937462  1.0000
  H   H127      1.0  0.8440383562939138  0.5509409371563243  0.048854844922270116  1.0000
  H   H128      1.0  0.15596164375992863  0.44905906290292524  0.9511451550469109  1.0000
  H   H129      1.0  0.13636062815570038  0.16177745449258088  0.49486659705861186  1.0000
  H   H130      1.0  0.8636393718981421  0.8382225455666686  0.5051334029105692  1.0000
  H   H131      1.0  0.2301923851187181  0.07603236338410134  0.445427522909117  1.0000
  H   H132      1.0  0.7698076149351244  0.9239676366751481  0.554572477060064  1.0000
  H   H133      1.0  0.25452167810906046  0.09009197187544873  0.5997681189581208  1.0000
  H   H134      1.0  0.745478321944782  0.9099080281838009  0.4002318810110601  1.0000
  H   H135      1.0  0.3857555310219748  0.1386830857733525  0.5688198281181925  1.0000
  H   H136      1.0  0.614244469122007  0.8613169144532131  0.4311801725033836  1.0000
  H   H137      1.0  0.6108076630294315  0.5393238915777564  0.5630347350095843  1.0000
  H   H138      1.0  0.38919233702441103  0.46067610848149326  0.4369652649595967  1.0000
  H   H139      1.0  0.5438875627169695  0.5983030993389317  0.48419086991825017  1.0000
  H   H140      1.0  0.456112437336873  0.40169690072031805  0.5158091300509309  1.0000
  C   C1        1.0  0.698834195558359  0.447937962642311  0.04539260069373862  1.0000
  C   C2        1.0  0.3011658044954833  0.5520620374169385  0.9546073992754424  1.0000
  C   C3        1.0  0.6507179905670137  0.4612662265462783  0.9645503308234716  1.0000
  C   C4        1.0  0.3492820094868287  0.5387337735129714  0.03544966914570929  1.0000
  C   C5        1.0  0.5512047442349982  0.40206643338376474  0.9206388279471901  1.0000
  C   C6        1.0  0.44879525581884416  0.5979335666754849  0.0793611720219909  1.0000
  C   C7        1.0  0.4956376296319475  0.33276139151663986  0.9574152822313108  1.0000
  C   C8        1.0  0.5043623703513305  0.6672386078430784  0.042584717734206315  1.0000
  C   C9        1.0  0.541250369074921  0.3219403875657153  0.03988001945855516  1.0000
  C   C10       1.0  0.4587496309789215  0.6780596124935343  0.9601199805106259  1.0000
  C   C11       1.0  0.6419462709868919  0.3805987543549305  0.08383327668270125  1.0000
  C   C12       1.0  0.35805372906695043  0.619401245704319  0.9161667232864796  1.0000
  C   C13       1.0  0.703032792940128  0.5390697567627429  0.9258295178975272  1.0000
  C   C14       1.0  0.2969672071137144  0.46093024329650667  0.07417048207165382  1.0000
  C   C15       1.0  0.5006070161437877  0.4148013288827688  0.833377841600708  1.0000
  C   C16       1.0  0.4993929839100547  0.585198671176481  0.16662215836847308  1.0000
  C   C17       1.0  0.6768700869153923  0.35097208233373833  0.762264886222161  1.0000
  C   C18       1.0  0.3231299131384502  0.6490279177255114  0.23773511374701997  1.0000
  C   C19       1.0  0.7252057766676818  0.36458999146793464  0.6888898396041083  1.0000
  C   C20       1.0  0.27479422338616066  0.6354100085913149  0.3111101603650727  1.0000
  C   C21       1.0  0.5768402529763331  0.4456040272784573  0.6987671485583954  1.0000
  C   C22       1.0  0.42315974707750925  0.5543959727807923  0.30123285141078565  1.0000
  C   C23       1.0  0.3860045818768994  0.2755773950944818  0.9079734093175297  1.0000
  C   C24       1.0  0.6139954181769429  0.7244226049647677  0.09202659065165134  1.0000
  C   C25       1.0  0.6844392208304888  0.3747803395789642  0.17488558019119288  1.0000
  C   C26       1.0  0.31556077836367663  0.6252196604829904  0.8251144197728874  1.0000
  C   C27       1.0  0.48178208413784956  0.2520444128285072  0.08532039920795166  1.0000
  C   C28       1.0  0.5182179159159929  0.7479555872307424  0.9146796007612293  1.0000
  C   C29       1.0  0.5527867318599836  0.1761421237112919  0.11172643281645325  1.0000
  C   C30       1.0  0.4472132681938588  0.8238578763479578  0.8882735671527278  1.0000
  C   C31       1.0  0.561056183329304  0.16423702507446003  0.1979315314453722  1.0000
  C   C32       1.0  0.4389438167245384  0.8357629749847897  0.8020684685238089  1.0000
  C   C33       1.0  0.6292425743319835  0.09425560192350967  0.22006305917148378  1.0000
  C   C34       1.0  0.3707574257218588  0.90574439813574  0.7799369407976972  1.0000
  C   C35       1.0  0.6906339915894901  0.037315458541152584  0.15835043506308796  1.0000
  C   C36       1.0  0.30936600846435236  0.9626845415180971  0.8416495649060931  1.0000
  C   C37       1.0  0.6832592936309713  0.050287231534265904  0.07242038767507582  1.0000
  C   C38       1.0  0.3167407064228711  0.9497127685249837  0.9275796122941052  1.0000
  C   C39       1.0  0.6095697094045428  0.11587503623121466  0.048580358294972516  1.0000
  C   C40       1.0  0.3904302906492997  0.8841249638280351  0.9514196416742084  1.0000
  C   C41       1.0  0.4997873739825989  0.223576336297299  0.2684329180846195  1.0000
  C   C42       1.0  0.5002126260712435  0.7764236637619506  0.7315670818845615  1.0000
  C   C43       1.0  0.6391719088087889  0.08328449259672839  0.31298007910750814  1.0000
  C   C44       1.0  0.3608280912450534  0.9167155074625212  0.6870199208616729  1.0000
  C   C45       1.0  0.4800516749010176  0.04308084870100835  0.4009284686558782  1.0000
  C   C46       1.0  0.5199483251528249  0.9569191513582412  0.5990715313133027  1.0000
  C   C47       1.0  0.41389486664821984  0.9002768204965332  0.3282921174333616  1.0000
  C   C48       1.0  0.5861051334056226  0.09972317956271635  0.6717078825358194  1.0000
  C   C49       1.0  0.5005098914003486  0.9302727983138718  0.2838482207327598  1.0000
  C   C50       1.0  0.49949010865349386  0.06972720174537779  0.7161517792364213  1.0000
  C   C51       1.0  0.7622300200883868  0.9631397668448328  0.18458537661138943  1.0000
  C   C52       1.0  0.23776997996545554  0.03686023321441673  0.8154146233577915  1.0000
  C   C53       1.0  0.5857899615472343  0.11698873458639404  0.9539877422776235  1.0000
  C   C54       1.0  0.41421003850660815  0.8830112654728556  0.04601225769155752  1.0000
  C   C55       1.0  0.7494980213877128  0.9910844213967807  0.0038859105847123964  1.0000
  C   C56       1.0  0.2505019778064526  0.00891557866517385  0.9961140893793679  1.0000
  C   C57       1.0  0.8286963113303148  0.04586803432109787  0.9563624831646139  1.0000
  C   C58       1.0  0.1713036887235275  0.9541319657381517  0.043637516804567095  1.0000
  C   C59       1.0  0.8169271602136031  0.026523972165192665  0.8643208196674198  1.0000
  C   C60       1.0  0.18307283898056229  0.973476027896762  0.13567918029666046  1.0000
  C   C61       1.0  0.8903355184163121  0.08034540582618571  0.8232504104317175  1.0000
  C   C62       1.0  0.1096644816375304  0.9196545942330638  0.17674958953746356  1.0000
  C   C63       1.0  0.9756187778434557  0.15259019339109395  0.8720559015007813  1.0000
  C   C64       1.0  0.02438122221038673  0.8474098066681557  0.12794409846839974  1.0000
  C   C65       1.0  0.9889526046396413  0.17029894937086687  0.9639533591700292  1.0000
  C   C66       1.0  0.01104739464466357  0.8297010508584036  0.036046641446446086  1.0000
  C   C67       1.0  0.9181368528698975  0.11412544420517216  0.005189166276501308  1.0000
  C   C68       1.0  0.08186314718394494  0.8858745558540774  0.9948108336926796  1.0000
  C   C69       1.0  0.7276182462158024  0.9496067325569825  0.809431800631034  1.0000
  C   C70       1.0  0.2723817537674754  0.050393266802735814  0.19056819933448307  1.0000
  C   C71       1.0  0.8740781875229054  0.06462875327840502  0.7250283526419984  1.0000
  C   C72       1.0  0.12592181253093698  0.9353712467808445  0.2749716473271825  1.0000
  C   C73       1.0  0.028075797090322114  0.030081136974890642  0.6225966821150398  1.0000
  C   C74       1.0  0.9719242029635204  0.969918863084359  0.3774033178541413  1.0000
  C   C75       1.0  0.06120758153153704  0.886440464358748  0.6305906190528541  1.0000
  C   C76       1.0  0.9387924185223054  0.11355953570050172  0.36940938091632697  1.0000
  C   C77       1.0  0.9783894740385816  0.9131769931981112  0.6858103455126202  1.0000
  C   C78       1.0  0.021610525155583867  0.08682300686384346  0.31418965445146  1.0000
  C   C79       1.0  0.04681105786888034  0.2091084575115194  0.8222092865236748  1.0000
  C   C80       1.0  0.9531889421849622  0.7908915425477302  0.1777907134455063  1.0000
  C   C81       1.0  0.9417919818956558  0.12339405208421206  0.10170826606263497  1.0000
  C   C82       1.0  0.05820801808762195  0.8766059472755062  0.8982917339028821  1.0000
  C   C83       1.0  0.07892116884378808  0.247932209820826  0.020127956559683715  1.0000
  C   C84       1.0  0.9210788312100543  0.7520677902384236  0.9798720434094972  1.0000
  C   C85       1.0  0.03542798916417146  0.32654384772071515  0.08866239541995509  1.0000
  C   C86       1.0  0.9645720108896709  0.6734561523385344  0.911337604549226  1.0000
  C   C87       1.0  0.08202912121229446  0.3490730063758897  0.17725202204078008  1.0000
  C   C88       1.0  0.9179708788415479  0.6509269936833598  0.8227479779284009  1.0000
  C   C89       1.0  0.04193622455182066  0.42543717991773417  0.23716569533861206  1.0000
  C   C90       1.0  0.9580637755020218  0.5745628201415155  0.7628343046305689  1.0000
  C   C91       1.0  0.9551478519017449  0.47910047071892786  0.2103766896289316  1.0000
  C   C92       1.0  0.0448521481520977  0.5208995293403218  0.7896233103402495  1.0000
  C   C93       1.0  0.9066117973442882  0.45438735626624277  0.1222530771737527  1.0000
  C   C94       1.0  0.09338820263898964  0.5456126430934755  0.8777469227917644  1.0000
  C   C95       1.0  0.9497567886437582  0.3815451364528332  0.061452161414332365  1.0000
  C   C96       1.0  0.050243211339519714  0.6184548629068851  0.9385478385511847  1.0000
  C   C97       1.0  0.17932817582648145  0.29865230978529733  0.2109441754973431  1.0000
  C   C98       1.0  0.8206718242273611  0.7013476902739524  0.789055824471838  1.0000
  C   C99       1.0  0.09416255897153487  0.45050460462051184  0.3312929052778189  1.0000
  C   C100      1.0  0.9058374410823076  0.5494953954387377  0.668707094691362  1.0000
  C   C101      1.0  0.07125425460430776  0.3985943708504342  0.47013401429324764  1.0000
  C   C102      1.0  0.9287457454495347  0.6014056292088156  0.5298659856759335  1.0000
  C   C103      1.0  0.8876980648789727  0.35677622766591566  0.45764467319310626  1.0000
  C   C104      1.0  0.11230193517486965  0.643223772393334  0.5423553267760748  1.0000
  C   C105      1.0  0.9107795080928226  0.3778237566893149  0.37935339875397084  1.0000
  C   C106      1.0  0.08922049189045522  0.6221762426704034  0.6206466012115461  1.0000
  C   C107      1.0  0.9165079802096299  0.5635240287246693  0.2734037244131716  1.0000
  C   C108      1.0  0.0834920198442125  0.43647597133458027  0.7265962755560094  1.0000
  C   C109      1.0  0.9083084428327779  0.3662623808834331  0.9661420847753217  1.0000
  C   C110      1.0  0.09169155722106453  0.6337376191758164  0.033857915193859334  1.0000
  C   C111      1.0  0.8095447034399046  0.5084877441534942  0.09206785944795606  1.0000
  C   C112      1.0  0.19045529661393779  0.49151225590575526  0.907932140521225  1.0000
  C   C113      1.0  0.22655419754456468  0.14709589888154798  0.488555590211001  1.0000
  C   C114      1.0  0.7734458025092776  0.8529041011777017  0.5114444097581801  1.0000
  C   C115      1.0  0.29420503734549386  0.14841083384907472  0.574425331274609  1.0000
  C   C116      1.0  0.7057949627083485  0.8515891662101751  0.425574668694572  1.0000
  C   C117      1.0  0.5567339591932647  0.5296151028653013  0.5008043853693189  1.0000
  C   C118      1.0  0.4432660408801526  0.4703848966617329  0.4991956152485933  1.0000
  N   N1        1.0  0.5824451942271343  0.40333712260306087  0.7677470989245798  1.0000
  N   N2        1.0  0.4175548058267081  0.5966628774561887  0.23225290104460122  1.0000
  N   N3        1.0  0.6615554711985795  0.4234860725791964  0.6494756575006821  1.0000
  N   N4        1.0  0.338444528855263  0.5765139274800531  0.3505243424684988  1.0000
  N   N5        1.0  0.5422653058596735  0.021827213012235776  0.3311337743359972  1.0000
  N   N6        1.0  0.45773469419416885  0.9781727870470137  0.6688662256331838  1.0000
  N   N7        1.0  0.4010276111407097  0.9714151283142749  0.40102417185278405  1.0000
  N   N8        1.0  0.5989723889131328  0.028584871744974635  0.5989758281163969  1.0000
  N   N9        1.0  0.9578068916743069  0.005211757936701386  0.6801528872404962  1.0000
  N   N10       1.0  0.042193108379535646  0.9947882421225481  0.3198471127286847  1.0000
  N   N11       1.0  0.09229894352420684  0.9600976185969575  0.5917178920334975  1.0000
  N   N12       1.0  0.9077010565296355  0.03990238146229218  0.40828210793568354  1.0000
  N   N13       1.0  0.02822940847072042  0.40399879206101036  0.38800973592476373  1.0000
  N   N14       1.0  0.9717705915831218  0.5960012079982392  0.6119902640444171  1.0000
  N   N15       1.0  0.9889185300383078  0.36948173960960184  0.5133527955755186  1.0000
  N   N16       1.0  0.01108147001553456  0.6305182604496479  0.4866472043936624  1.0000
  O   O1        1.0  0.8715366879076017  0.2067870581534905  0.5844060022871561  1.0000
  O   O2        1.0  0.12846331214624063  0.7932129419057592  0.4155939976820249  1.0000
  O   O3        1.0  0.7774485471521307  0.15831431644455426  0.5404587486028375  1.0000
  O   O4        1.0  0.22255145290171155  0.8416856836146954  0.4595412513663435  1.0000
  O   O5        1.0  0.6995571456427802  0.2090330738574224  0.5147179292225905  1.0000
  O   O6        1.0  0.3004428544110622  0.7909669262018272  0.48528207074659047  1.0000
  Cl  Cl1       1.0  0.28754641747786946  0.23349720114734976  0.43466670366581683  1.0000
  Cl  Cl2       1.0  0.7124535825759729  0.7665027989118998  0.5653332963033643  1.0000
  Cl  Cl3       1.0  0.2899616254426045  0.2585645432764597  0.6551748586318843  1.0000
  Cl  Cl4       1.0  0.710038374611238  0.7414354567827899  0.3448251413372968  1.0000
  Cl  Cl5       1.0  0.6386272259317594  0.46437784466896376  0.4198126472536721  1.0000
  Cl  Cl6       1.0  0.36137277405151846  0.5356221546907545  0.5801873527118451  1.0000
