data_image0
_chemical_formula_structural       H36C42N8O16Cl4
_chemical_formula_sum              "H36 C42 N8 O16 Cl4"
_cell_length_a       18.210183358416607
_cell_length_b       9.02264227446888
_cell_length_c       7.07665878303942
_cell_angle_alpha    108.49314645397907
_cell_angle_beta     85.43883362293357
_cell_angle_gamma    106.10122680166901

_space_group_name_H-M_alt    "P 1"
_space_group_IT_number       1

loop_
  _space_group_symop_operation_xyz
  'x, y, z'

loop_
  _atom_site_type_symbol
  _atom_site_label
  _atom_site_symmetry_multiplicity
  _atom_site_fract_x
  _atom_site_fract_y
  _atom_site_fract_z
  _atom_site_occupancy
  H   H1        1.0  0.3522417849898433  0.8703520093815931  0.34605553825743973  1.0000
  H   H2        1.0  0.6477582150433808  0.12964799113894757  0.6539444617256964  1.0000
  H   H3        1.0  0.3865809654490324  0.15467153747691184  0.33947446478592236  1.0000
  H   H4        1.0  0.613419034428212  0.8453284618906253  0.6605255351994347  1.0000
  H   H5        1.0  0.6171017194198042  0.13085568664831523  0.18017735380101235  1.0000
  H   H6        1.0  0.3828982804574403  0.869144312719222  0.8198226461843445  1.0000
  H   H7        1.0  0.702759274531529  0.822084021820454  0.09567692965586737  1.0000
  H   H8        1.0  0.2972407258955529  0.17791597755076785  0.9043230703230586  1.0000
  H   H9        1.0  0.48975668948223294  0.6409571498438821  0.21820448480575672  1.0000
  H   H10       1.0  0.5102433105509913  0.3590428506766587  0.7817955151773794  1.0000
  H   H11       1.0  0.35074673038024123  0.6315295728280876  0.5250342751124836  1.0000
  H   H12       1.0  0.6492532694970032  0.3684704265394496  0.47496572487287336  1.0000
  H   H13       1.0  0.34478159676358844  0.3511725079527375  0.5091902231971126  1.0000
  H   H14       1.0  0.6552184032696358  0.648827492567803  0.49080977678602355  1.0000
  H   H15       1.0  0.108466570235925  0.1949778865202711  0.31973864648200384  1.0000
  H   H16       1.0  0.8915334297972992  0.8050221140002696  0.6802613535011324  1.0000
  H   H17       1.0  0.9898727083585178  0.4062277494661021  0.24060231990840458  1.0000
  H   H18       1.0  0.01012729151872669  0.5937722499014353  0.7593976800769524  1.0000
  H   H19       1.0  0.18447014988650973  0.7297394756231491  0.4201056880218737  1.0000
  H   H20       1.0  0.8155298501467145  0.2702605248973915  0.5798943119612625  1.0000
  H   H21       1.0  0.017821371644926517  0.7010930349077102  0.26618462084516203  1.0000
  H   H22       1.0  0.9821786283882976  0.2989069656128303  0.7338153791379741  1.0000
  H   H23       1.0  0.6623316310621765  0.4891114484570956  0.9901639045394515  1.0000
  H   H24       1.0  0.33766836881506784  0.5108885509104416  0.00983609544590547  1.0000
  H   H25       1.0  0.8897266186354007  0.02978821827833985  0.021397642108169062  1.0000
  H   H26       1.0  0.11027338139782338  0.9702117822422007  0.9786023578749672  1.0000
  H   H27       1.0  0.8206130431387519  0.023530141095430075  0.21756230506122362  1.0000
  H   H28       1.0  0.17938695689447218  0.9764698594251106  0.7824376949219125  1.0000
  H   H29       1.0  0.9200757260592943  0.1147671669398152  0.2757426436718564  1.0000
  H   H30       1.0  0.0799242739739298  0.8852328335807254  0.7242573563112796  1.0000
  H   H31       1.0  0.7941157717002885  0.2381069225234436  0.9327585660413162  1.0000
  H   H32       1.0  0.20588422833293568  0.761893077997097  0.06724143394181992  1.0000
  H   H33       1.0  0.7544030823254698  0.268930203710301  0.1756849714444815  1.0000
  H   H34       1.0  0.24559691770775438  0.7310697968102398  0.8243150285386547  1.0000
  H   H35       1.0  0.6950723874626329  0.23155792036609332  0.9659443493294747  1.0000
  H   H36       1.0  0.30492761296444904  0.7684420790051285  0.03405565064945124  1.0000
  C   C1        1.0  0.5397847922686105  0.9127980088519483  0.21256278701216227  1.0000
  C   C2        1.0  0.4602152076086338  0.08720199051558901  0.7874372129731947  1.0000
  C   C3        1.0  0.4639685697309013  0.8368784941955184  0.2557324600582014  1.0000
  C   C4        1.0  0.5360314303023229  0.16312150632502218  0.7442675399249348  1.0000
  C   C5        1.0  0.40958473517898997  0.9267060946132272  0.30423085808545997  1.0000
  C   C6        1.0  0.5904152648542342  0.07329390590731337  0.695769141897676  1.0000
  C   C7        1.0  0.4294037573282428  0.08680336541947675  0.30497069677073  1.0000
  C   C8        1.0  0.5705962425490017  0.9131966339480605  0.6950293032146269  1.0000
  C   C9        1.0  0.5041753952953238  0.16079721115945622  0.2604575888446476  1.0000
  C   C10       1.0  0.49582460473790035  0.8392027893610844  0.7395424111384886  1.0000
  C   C11       1.0  0.5589886040482983  0.07513056060999586  0.21542731120130434  1.0000
  C   C12       1.0  0.4410113958289461  0.9248694387575414  0.7845726887840525  1.0000
  C   C13       1.0  0.5971321543157442  0.8200364887431941  0.16647205811209542  1.0000
  C   C14       1.0  0.4028678455615002  0.17996351062434307  0.8335279418732615  1.0000
  C   C15       1.0  0.16405598563904492  0.4506773790344021  0.3798342425008053  1.0000
  C   C16       1.0  0.8359440142381994  0.5493226203331352  0.6201657574845518  1.0000
  C   C17       1.0  0.23273141152656365  0.5750489719075024  0.4393023565732793  1.0000
  C   C18       1.0  0.7672685883506808  0.42495102746003477  0.5606976434120775  1.0000
  C   C19       1.0  0.29765869884427587  0.5366767551912697  0.4825702564921352  1.0000
  C   C20       1.0  0.7023413010329685  0.46332324417626763  0.5174297434932217  1.0000
  C   C21       1.0  0.29454287707010357  0.3784485686951188  0.4694422555481255  1.0000
  C   C22       1.0  0.7054571229631206  0.6215514318254218  0.5305577444350106  1.0000
  C   C23       1.0  0.22651316468314056  0.25581013077374165  0.40940207736778933  1.0000
  C   C24       1.0  0.7734868351941039  0.7441898685937955  0.5905979226175676  1.0000
  C   C25       1.0  0.161509301251271  0.2900488878036661  0.364779817336925  1.0000
  C   C26       1.0  0.8384906986259734  0.7099511115638711  0.6352201826484319  1.0000
  C   C27       1.0  0.09657794125464977  0.49111663672907396  0.3315671954317836  1.0000
  C   C28       1.0  0.9034220587785744  0.5088833637914667  0.6684328045513527  1.0000
  C   C29       1.0  0.8787754853508417  0.017554713767588846  0.17128873763285363  1.0000
  C   C30       1.0  0.1212245145264026  0.9824452855999484  0.8287112623525033  1.0000
  C   C31       1.0  0.7521895883495158  0.28956753289058135  0.0320676081721047  1.0000
  C   C32       1.0  0.2478104116837084  0.7104324676299593  0.9679323918110314  1.0000
  C   C33       1.0  0.9602194151715346  0.8553852505399644  0.22118583202382955  1.0000
  C   C34       1.0  0.0397805847057097  0.1446147488275728  0.7788141679615274  1.0000
  C   C35       1.0  0.8299090470183205  0.7233964525782391  0.12377891655117021  1.0000
  C   C36       1.0  0.17009095301490368  0.27660354794230146  0.8762210834319659  1.0000
  C   C37       1.0  0.8397250694220487  0.5741488921525653  0.11761327612500923  1.0000
  C   C38       1.0  0.1602749306111755  0.4258511083679753  0.8823867238581269  1.0000
  C   C39       1.0  0.9094450093695808  0.5581725172921944  0.1724128642691213  1.0000
  C   C40       1.0  0.09055499066364323  0.4418274832283462  0.8275871357140148  1.0000
  C   C41       1.0  0.7219092622071932  0.5457642604318723  0.03438217309988764  1.0000
  C   C42       1.0  0.2780907376700513  0.4542357389356649  0.9656178268854693  1.0000
  N   N1        1.0  0.9652641780258118  0.7039785140142383  0.22390231154403192  1.0000
  N   N2        1.0  0.03473582200741243  0.29602148650630233  0.7760976884391042  1.0000
  N   N3        1.0  0.8883601476475214  0.8626295564848103  0.17468447368794987  1.0000
  N   N4        1.0  0.11163985222972296  0.1373704428827269  0.825315526297407  1.0000
  N   N5        1.0  0.7697114562571437  0.4625068554370114  0.05890137046224202  1.0000
  N   N6        1.0  0.23028854362010068  0.5374931439305257  0.941098629523115  1.0000
  N   N7        1.0  0.756547864001749  0.7052573144402176  0.0728419500625304  1.0000
  N   N8        1.0  0.2434521360314751  0.2947426860803231  0.9271580499206058  1.0000
  O   O1        1.0  0.6657595367129135  0.8960049990378222  0.11789258973807942  1.0000
  O   O2        1.0  0.33424046316433087  0.10399500032971509  0.8821074102472775  1.0000
  O   O3        1.0  0.5814746632426299  0.6774456010226144  0.17336785895431206  1.0000
  O   O4        1.0  0.41852533679059434  0.32255439949792625  0.826632141028824  1.0000
  O   O5        1.0  0.44201902148650324  0.6801449054473189  0.2510017839728852  1.0000
  O   O6        1.0  0.5579809785467209  0.31985509507322174  0.748998216010251  1.0000
  O   O7        1.0  0.03504441453820575  0.36958433200478685  0.27872162566526393  1.0000
  O   O8        1.0  0.9649555853390386  0.6304156673627503  0.721278374320093  1.0000
  O   O9        1.0  0.09860037655862845  0.634167273189614  0.3392241327917729  1.0000
  O   O10       1.0  0.9013996233186159  0.36583272617792334  0.6607758671935839  1.0000
  O   O11       1.0  0.23714495113264755  0.7312875063437594  0.4583574627770923  1.0000
  O   O12       1.0  0.7628550489005765  0.26871249417678117  0.5416425372060438  1.0000
  O   O13       1.0  0.9207619140627025  0.4274005699702542  0.17592627634814284  1.0000
  O   O14       1.0  0.07923808597052165  0.5725994305502863  0.8240737236349933  1.0000
  O   O15       1.0  0.01625254634157454  0.9738341820298169  0.2586792026797495  1.0000
  O   O16       1.0  0.9837474535356697  0.026165817337720314  0.7413207973056074  1.0000
  Cl  Cl1       1.0  0.5276335613013867  0.35995926681878165  0.2588617613832191  1.0000
  Cl  Cl2       1.0  0.47236643873183753  0.640040733701759  0.741138238599917  1.0000
  Cl  Cl3       1.0  0.22444548787620386  0.05835552375562169  0.39205624413693146  1.0000
  Cl  Cl4       1.0  0.7755545121570204  0.9416444767649189  0.6079437558462047  1.0000
