data_image0
_chemical_formula_structural       H28C46N12O8Cl8
_chemical_formula_sum              "H28 C46 N12 O8 Cl8"
_cell_length_a       9.00276587297403
_cell_length_b       11.31328319613532
_cell_length_c       11.581489400222607
_cell_angle_alpha    95.52741985570978
_cell_angle_beta     104.43585067513665
_cell_angle_gamma    89.71720541143695

_space_group_name_H-M_alt    "P 1"
_space_group_IT_number       1

loop_
  _space_group_symop_operation_xyz
  'x, y, z'

loop_
  _atom_site_type_symbol
  _atom_site_label
  _atom_site_symmetry_multiplicity
  _atom_site_fract_x
  _atom_site_fract_y
  _atom_site_fract_z
  _atom_site_occupancy
  H   H1        1.0  0.32363184799299527  0.9571260602300385  0.3561773716735942  1.0000
  H   H2        1.0  0.6763681525516753  0.04287393959336065  0.6438226290137726  1.0000
  H   H3        1.0  0.9754170599048063  0.5168560457195936  0.3368197799698698  1.0000
  H   H4        1.0  0.02458294033830663  0.4831439548992902  0.6631802198204673  1.0000
  H   H5        1.0  0.4987005338293481  0.7781526828975888  0.4078419077331329  1.0000
  H   H6        1.0  0.5012994653062689  0.22184731772508443  0.5921580920672507  1.0000
  H   H7        1.0  0.08463249318460482  0.8893723710307492  0.18233756818408214  1.0000
  H   H8        1.0  0.915367505953349  0.11062762870811442  0.8176624316174615  1.0000
  H   H9        1.0  0.10685013779904641  0.6477310401659787  0.13340399470627273  1.0000
  H   H10       1.0  0.8931498616357912  0.352268960545019  0.8665960059899803  1.0000
  H   H11       1.0  0.18986320894893746  0.480622271427707  0.13736611418327674  1.0000
  H   H12       1.0  0.8101367912965124  0.5193777283073675  0.8626338856082205  1.0000
  H   H13       1.0  0.515760520920199  0.23924100499886214  0.3212006185394454  1.0000
  H   H14       1.0  0.48423947932525097  0.7607589947362123  0.6787993812520519  1.0000
  H   H15       1.0  0.5915686219839228  0.6176874775445923  0.4063997840362737  1.0000
  H   H16       1.0  0.408431378261527  0.3823125221904823  0.5936002157552236  1.0000
  H   H17       1.0  0.044201041567498045  0.3343160395675164  0.07967727658357651  1.0000
  H   H18       1.0  0.9557989586779516  0.6656839601675582  0.9203227232079207  1.0000
  H   H19       1.0  0.43113877595609224  0.11445440954887659  0.16858463467227325  1.0000
  H   H20       1.0  0.5688612242870206  0.8855455910700073  0.8314153651180639  1.0000
  H   H21       1.0  0.18600799162739118  0.9839292439834937  0.017848793246517346  1.0000
  H   H22       1.0  0.8139920086180586  0.01607075575158072  0.98215120654498  1.0000
  H   H23       1.0  0.7683143339293608  0.5834286481007575  0.5470649871392448  1.0000
  H   H24       1.0  0.23168566661530993  0.41657135172264176  0.4529350135481221  1.0000
  H   H25       1.0  0.7475789506417568  0.22329655784001806  0.3995750273651338  1.0000
  H   H26       1.0  0.25242104879308075  0.7767034428709796  0.6004249733311192  1.0000
  H   H27       1.0  0.019165413626986958  0.26527432924771666  0.5770371210891574  1.0000
  H   H28       1.0  0.9808345866184629  0.7347256704873578  0.42296287870233984  1.0000
  C   C1        1.0  0.26002470504386715  0.13591946021195345  0.46440139788367285  1.0000
  C   C2        1.0  0.7399752952015828  0.8640805395231211  0.5355986019078245  1.0000
  C   C3        1.0  0.12673928532195222  0.0617123799303899  0.48077540992811274  1.0000
  C   C4        1.0  0.8732607149211605  0.9382876206884939  0.5192245898622243  1.0000
  C   C5        1.0  0.1396010500520058  0.006485745565459428  0.5858089337511233  1.0000
  C   C6        1.0  0.860398950193444  0.9935142541696151  0.4141910660403739  1.0000
  C   C7        1.0  0.9863146849405684  0.053868142320935765  0.3942094761086982  1.0000
  C   C8        1.0  0.013685314197385636  0.9461318574179279  0.6057905236928456  1.0000
  C   C9        1.0  0.8144864264939352  0.49263820112196843  0.1493791501955319  1.0000
  C   C10       1.0  0.18551357375151464  0.507361798613106  0.8506208495959654  1.0000
  C   C11       1.0  0.6493285388210354  0.4951356862640804  0.0754597299129729  1.0000
  C   C12       1.0  0.3506714617236353  0.5048643135593188  0.9245402707743938  1.0000
  C   C13       1.0  0.5761075365343264  0.6039519363329591  0.059505598100547334  1.0000
  C   C14       1.0  0.4238924637087862  0.39604806428592493  0.9404944016897897  1.0000
  C   C15       1.0  0.5714367776941178  0.3910411251885358  0.016799418275817136  1.0000
  C   C16       1.0  0.4285632228505526  0.6089588746348634  0.9832005824115495  1.0000
  C   C17       1.0  0.3904629550486661  0.7753672447413197  0.3400720055415809  1.0000
  C   C18       1.0  0.6095370443885086  0.22463275508586875  0.6599279951558323  1.0000
  C   C19       1.0  0.17213537047155922  0.8298601399184076  0.2233902781582779  1.0000
  C   C20       1.0  0.8278646286640577  0.17013986070426554  0.7766097216421057  1.0000
  C   C21       1.0  0.18470833501778217  0.7106297440184647  0.19604434466083834  1.0000
  C   C22       1.0  0.8152916652276677  0.28937025571660985  0.803955655130659  1.0000
  C   C23       1.0  0.38119302654222664  0.5601175281939564  0.27578561443324845  1.0000
  C   C24       1.0  0.6188069737008861  0.43988247242492745  0.7242143853570886  1.0000
  C   C25       1.0  0.29576565945945776  0.46593015109020897  0.2035851017558231  1.0000
  C   C26       1.0  0.7042343407859921  0.5340698486448655  0.7964148980356742  1.0000
  C   C27       1.0  0.348215267914518  0.35053576350699267  0.21899219205873424  1.0000
  C   C28       1.0  0.6517847323309318  0.6494642362280818  0.781007807732763  1.0000
  C   C29       1.0  0.48302091853137735  0.3298355054111343  0.30484723589004753  1.0000
  C   C30       1.0  0.5169790817117355  0.6701644952077496  0.6951527639002896  1.0000
  C   C31       1.0  0.5701372696643247  0.42686088724613247  0.3697511807325803  1.0000
  C   C32       1.0  0.42986273058112523  0.573139112488942  0.6302488190589169  1.0000
  C   C33       1.0  0.5212501731672688  0.5427948622941433  0.356184471084815  1.0000
  C   C34       1.0  0.47874982737506455  0.4572051384130652  0.6438155296013915  1.0000
  C   C35       1.0  0.1131138770967767  0.2550840143667478  0.08053755818443203  1.0000
  C   C36       1.0  0.8868861220411772  0.7449159853721159  0.9194624416171117  1.0000
  C   C37       1.0  0.3146717873587115  0.13887844437745542  0.1292565241726344  1.0000
  C   C38       1.0  0.6853282131859592  0.8611215554459437  0.8707434765147324  1.0000
  C   C39       1.0  0.19337078044362083  0.07676675327121374  0.052689377800113485  1.0000
  C   C40       1.0  0.8066292200987127  0.9232332474359949  0.9473106228860931  1.0000
  C   C41       1.0  0.7974881545677346  0.49058473947680253  0.534050824003802  1.0000
  C   C42       1.0  0.20251184567771527  0.509415260258272  0.46594917578769546  1.0000
  C   C43       1.0  0.7904349663236753  0.30142009850422097  0.45947736000781225  1.0000
  C   C44       1.0  0.20956503392177464  0.6985799012308537  0.5405226397836851  1.0000
  C   C45       1.0  0.9234088429092759  0.32245626016003315  0.5468457228872712  1.0000
  C   C46       1.0  0.07659115733617397  0.6775437395750413  0.45315427690422605  1.0000
  N   N1        1.0  0.3003702471292446  0.8674363780379944  0.31231325577396685  1.0000
  N   N2        1.0  0.6996297523079299  0.13256362178919406  0.6876867449234463  1.0000
  N   N3        1.0  0.32289627856496905  0.6776164840337234  0.26947678540923764  1.0000
  N   N4        1.0  0.677103720572985  0.3223835157051403  0.7305232143923062  1.0000
  N   N5        1.0  0.2634305049676691  0.25372181217176826  0.147444507402875  1.0000
  N   N6        1.0  0.7365694955746643  0.7462781885354404  0.8525554932833315  1.0000
  N   N7        1.0  0.06822232753794832  0.14978997843776887  0.02318338123107409  1.0000
  N   N8        1.0  0.9317776727075016  0.8502100212973056  0.9768166185604231  1.0000
  N   N9        1.0  0.7118546257988636  0.4075677376845308  0.45246964214536656  1.0000
  N   N10       1.0  0.28814537363831105  0.5924322621426577  0.5475303585520466  1.0000
  N   N11       1.0  0.9245803238714613  0.44000442229716996  0.5916997372847252  1.0000
  N   N12       1.0  0.07541967637398862  0.5599955774379047  0.40830026250677215  1.0000
  O   O1        1.0  0.35685186136737224  0.08470611676941393  0.4146362977479393  1.0000
  O   O2        1.0  0.6431481388780776  0.9152938829656606  0.585363702043558  1.0000
  O   O3        1.0  0.26339157580309863  0.24327872805340237  0.5055237240465136  1.0000
  O   O4        1.0  0.7366084244423512  0.7567212716816721  0.49447627574498365  1.0000
  O   O5        1.0  0.8316189363513492  0.48319876261860434  0.2609793152600752  1.0000
  O   O6        1.0  0.16838106389410068  0.5168012371164701  0.7390206845314222  1.0000
  O   O7        1.0  0.9166930512584668  0.5009465576719984  0.09447301105348678  1.0000
  O   O8        1.0  0.08330694787715018  0.49905344295067466  0.9055269887468967  1.0000
  Cl  Cl1       1.0  0.31409374702794485  0.012041736280500544  0.6908653892994828  1.0000
  Cl  Cl2       1.0  0.685906253217505  0.987958263454574  0.3091346104920145  1.0000
  Cl  Cl3       1.0  0.9711266973506308  0.11898739505244108  0.26363712665041306  1.0000
  Cl  Cl4       1.0  0.028873302894819  0.8810126046826333  0.7363628731410843  1.0000
  Cl  Cl5       1.0  0.667464520784979  0.7318047365032299  0.13654788977023147  1.0000
  Cl  Cl6       1.0  0.3325354786498586  0.2681952642077679  0.8634521109260215  1.0000
  Cl  Cl7       1.0  0.6587770021596524  0.2561935065859983  0.04041025363180306  1.0000
  Cl  Cl8       1.0  0.3412229969759645  0.7438064940366749  0.9595897461685805  1.0000
