data_image0
_chemical_formula_structural       H60C76N20O8S4
_chemical_formula_sum              "H60 C76 N20 O8 S4"
_cell_length_a       10.176175356346594
_cell_length_b       16.301646569717885
_cell_length_c       11.923280517494831
_cell_angle_alpha    90.0
_cell_angle_beta     115.50539581300606
_cell_angle_gamma    90.0

_space_group_name_H-M_alt    "P 1"
_space_group_IT_number       1

loop_
  _space_group_symop_operation_xyz
  'x, y, z'

loop_
  _atom_site_type_symbol
  _atom_site_label
  _atom_site_symmetry_multiplicity
  _atom_site_fract_x
  _atom_site_fract_y
  _atom_site_fract_z
  _atom_site_occupancy
  H   H1        1.0  0.8599758746943452  0.19202884730767256  0.039421611802806525  1.0000
  H   H2        1.0  0.14002412503582032  0.6920288470096081  0.46057838813576024  1.0000
  H   H3        1.0  0.1400241254129993  0.8079711527096334  0.9605783887480949  1.0000
  H   H4        1.0  0.859975874623342  0.3079711530076979  0.539421611486088  1.0000
  H   H5        1.0  0.8559109578868225  0.20022603152636542  0.38372599066489227  1.0000
  H   H6        1.0  0.1440890418433429  0.7002260318417358  0.11627400927367446  1.0000
  H   H7        1.0  0.14408904177233964  0.7997739684909405  0.6162740089569559  1.0000
  H   H8        1.0  0.8559109578158194  0.29977396817557006  0.8837259903481738  1.0000
  H   H9        1.0  0.7249969639024966  0.38290705440732814  0.1444463165674106  1.0000
  H   H10       1.0  0.27500303582766894  0.8829070547226986  0.3555536833711561  1.0000
  H   H11       1.0  0.27500303575666574  0.6170929456099778  0.8555536830544376  1.0000
  H   H12       1.0  0.7249969642796755  0.11709294529460737  0.6444463171797452  1.0000
  H   H13       1.0  0.9055221973261711  0.41597940864432287  0.22116835111594155  1.0000
  H   H14       1.0  0.09447780240399431  0.9159794089596933  0.2788316488226252  1.0000
  H   H15       1.0  0.09447780278117329  0.5840205913729831  0.7788316494349599  1.0000
  H   H16       1.0  0.9055221972551679  0.08402059105761261  0.721168350799223  1.0000
  H   H17       1.0  0.09061312750672114  0.4884096122406479  0.9152751200597599  1.0000
  H   H18       1.0  0.9093868720814381  0.9884096119425834  0.58472487924537  1.0000
  H   H19       1.0  0.9093868721524412  0.511590387776658  0.08472487956208843  1.0000
  H   H20       1.0  0.0906131285699996  0.011590388074722555  0.41527512039590786  1.0000
  H   H21       1.0  0.10646565080641196  0.3367639377115392  0.939288419036603  1.0000
  H   H22       1.0  0.8935343492299292  0.8367639380269096  0.56071158119758  1.0000
  H   H23       1.0  0.8935343493009326  0.6632360623057668  0.060711581514298535  1.0000
  H   H24       1.0  0.10646565087741516  0.1632360619903963  0.4392884193533213  1.0000
  H   H25       1.0  0.3448667816001507  0.2741980082124523  0.08834471680051488  1.0000
  H   H26       1.0  0.6551332181300148  0.7741980085278228  0.41165528313805183  1.0000
  H   H27       1.0  0.6551332180590115  0.7258019918048536  0.9116552828213333  1.0000
  H   H28       1.0  0.34486678152914746  0.22580199148948316  0.5883447164837964  1.0000
  H   H29       1.0  0.5484743205766165  0.3665012423406623  0.21104844055470803  1.0000
  H   H30       1.0  0.45152567915354896  0.8665012426560327  0.2889515593838587  1.0000
  H   H31       1.0  0.4515256790825457  0.6334987576766438  0.7889515590671402  1.0000
  H   H32       1.0  0.5484743209537956  0.13349875736127323  0.7110484411670427  1.0000
  H   H33       1.0  0.6742031472572723  0.4479658290203244  0.3402053612628954  1.0000
  H   H34       1.0  0.32579685346516857  0.9479658287222599  0.15979463869510088  1.0000
  H   H35       1.0  0.3257968533941653  0.5520341709969815  0.6597946383783824  1.0000
  H   H36       1.0  0.674203146642176  0.05203417129504603  0.8402053618558005  1.0000
  H   H37       1.0  0.8739481059995299  0.5452148021973595  0.4528687289987018  1.0000
  H   H38       1.0  0.12605189472291092  0.045214801881989015  0.04713127095929454  1.0000
  H   H39       1.0  0.12605189465190766  0.4547851978199465  0.547131270642576  1.0000
  H   H40       1.0  0.8739481059285266  0.9547851981353169  0.9528687286819834  1.0000
  H   H41       1.0  0.854300509628164  0.6891449824994224  0.37432689297913935  1.0000
  H   H42       1.0  0.1456994901020016  0.1891449821840519  0.12567310695942735  1.0000
  H   H43       1.0  0.1456994900309983  0.31085501751788364  0.6256731066427088  1.0000
  H   H44       1.0  0.8543005095571606  0.810855017833254  0.8743268926624208  1.0000
  H   H45       1.0  0.8693740797993376  0.7637942809488525  0.2312663116836733  1.0000
  H   H46       1.0  0.130625919930828  0.26379428124691706  0.26873368825489347  1.0000
  H   H47       1.0  0.13062592030800696  0.23620571906845342  0.768733688867228  1.0000
  H   H48       1.0  0.8693740797283341  0.7362057187703889  0.7312663113669547  1.0000
  H   H49       1.0  0.8498060617887999  0.9070981018241955  0.14784826122200875  1.0000
  H   H50       1.0  0.15019393794136562  0.40709810150882497  0.3521517387165579  1.0000
  H   H51       1.0  0.1501939383185446  0.09290189819311051  0.8521517393288925  1.0000
  H   H52       1.0  0.8498060617177966  0.592901898508481  0.6478482609052902  1.0000
  H   H53       1.0  0.6018556506321742  0.9669676245638784  0.030172086727522546  1.0000
  H   H54       1.0  0.3981443490979912  0.46696762486194293  0.46982791321104417  1.0000
  H   H55       1.0  0.3981443494751702  0.03303237545342752  0.9698279138233789  1.0000
  H   H56       1.0  0.601855650561171  0.533032375155363  0.5301720864108042  1.0000
  H   H57       1.0  0.3849755761446222  0.8828821774811103  0.0030013121776107407  1.0000
  H   H58       1.0  0.6150244235855432  0.38288217777917494  0.49699868776095596  1.0000
  H   H59       1.0  0.6150244239627223  0.11711782253619553  0.9969986883732908  1.0000
  H   H60       1.0  0.38497557607361893  0.617117822238131  0.5030013118608921  1.0000
  C   C1        1.0  0.8382612448663224  0.36049775431376574  0.1960956582505732  1.0000
  C   C2        1.0  0.16173875486384315  0.8604977546291361  0.3039043416879935  1.0000
  C   C3        1.0  0.16173875524102213  0.6395022457035402  0.8039043423003281  1.0000
  C   C4        1.0  0.838261244795319  0.13950224538816977  0.6960956579338548  1.0000
  C   C5        1.0  0.8539567928820249  0.3155152314217429  0.3110246792803026  1.0000
  C   C6        1.0  0.14604320684814057  0.8155152311236784  0.1889753206582641  1.0000
  C   C7        1.0  0.14604320722531958  0.6844847685955631  0.6889753212705988  1.0000
  C   C8        1.0  0.8539567928110215  0.18448476889362753  0.8110246789635841  1.0000
  C   C9        1.0  0.8434528565289671  0.18420316175778595  0.2066451779098976  1.0000
  C   C10       1.0  0.15654714320119845  0.6842031614597215  0.29335482202866914  1.0000
  C   C11       1.0  0.15654714357837735  0.81579683825952  0.7933548226410037  1.0000
  C   C12       1.0  0.8434528564579639  0.3157968385575845  0.7066451775931791  1.0000
  C   C13       1.0  0.8669443881961194  0.31010580117659153  0.10393250262976879  1.0000
  C   C14       1.0  0.13305561153404596  0.810105801491962  0.39606749730879787  1.0000
  C   C15       1.0  0.13305561191122495  0.6898941988407143  0.8960674979211325  1.0000
  C   C16       1.0  0.8669443881251163  0.18989419852534395  0.6039325023130503  1.0000
  C   C17       1.0  0.1931011495523447  0.45972852361561756  0.9785167649319543  1.0000
  C   C18       1.0  0.8068988500358143  0.9597285239309881  0.5214832343731753  1.0000
  C   C19       1.0  0.8068988501068176  0.5402714764016883  0.021483234689893885  1.0000
  C   C20       1.0  0.1931011506156233  0.0402714760863179  0.4785167652681024  1.0000
  C   C21       1.0  0.2009697828810898  0.3745920317855154  0.9925596383089701  1.0000
  C   C22       1.0  0.7990302171552515  0.8745920321008859  0.5074403619252127  1.0000
  C   C23       1.0  0.7990302167780724  0.6254079682317906  0.007440361312878056  1.0000
  C   C24       1.0  0.20096978295209303  0.1254079679164201  0.49255963862568863  1.0000
  C   C25       1.0  0.33196230618907463  0.3403801441939878  0.07603639669427956  1.0000
  C   C26       1.0  0.6680376945333661  0.8403801438959232  0.4239636032637168  1.0000
  C   C27       1.0  0.6680376934700876  0.6596198558233182  0.9239636029275686  1.0000
  C   C28       1.0  0.3319623065662536  0.15961985612138266  0.5760363973066142  1.0000
  C   C29       1.0  0.44704486593497705  0.39256690682325035  0.14341692210262752  1.0000
  C   C30       1.0  0.5529551337951886  0.8925669065251859  0.35658307783593923  1.0000
  C   C31       1.0  0.5529551341723675  0.6074330931940555  0.856583078448274  1.0000
  C   C32       1.0  0.44704486586397374  0.10743309349212007  0.643416921785909  1.0000
  C   C33       1.0  0.4300598740084227  0.4776206174450723  0.12318212480915122  1.0000
  C   C34       1.0  0.5699401267140181  0.9776206171470077  0.37681787514884507  1.0000
  C   C35       1.0  0.569940127091197  0.5223793825722337  0.8768178757611796  1.0000
  C   C36       1.0  0.4300598739374195  0.02237938287029821  0.6231821244924328  1.0000
  C   C37       1.0  0.5504400653717032  0.5355303768035918  0.1946972127093884  1.0000
  C   C38       1.0  0.44955993435846225  0.0355303771016564  0.3053027872291783  1.0000
  C   C39       1.0  0.44955993428745905  0.46446962321371404  0.8053027869124598  1.0000
  C   C40       1.0  0.5504400653007  0.9644696229156495  0.6946972123926699  1.0000
  C   C41       1.0  0.6687912458814693  0.5096189715848913  0.30400138705455165  1.0000
  C   C42       1.0  0.33120875384869614  0.00961897188295585  0.19599861288401504  1.0000
  C   C43       1.0  0.33120875377769293  0.4903810284324146  0.6959986125672967  1.0000
  C   C44       1.0  0.6687912462586482  0.9903810281343501  0.8040013876668861  1.0000
  C   C45       1.0  0.7808687465299461  0.5643582782054644  0.3683155631129423  1.0000
  C   C46       1.0  0.2191312532002193  0.06435827850352889  0.13168443682562442  1.0000
  C   C47       1.0  0.21913125312921605  0.4356417218118416  0.6316844365089059  1.0000
  C   C48       1.0  0.7808687469071253  0.9356417215137771  0.8683155637252771  1.0000
  C   C49       1.0  0.7708878274789531  0.6439756674335552  0.32360374409157644  1.0000
  C   C50       1.0  0.22911217225121228  0.14397566773161968  0.17639625584699026  1.0000
  C   C51       1.0  0.22911217262839123  0.35602433258375077  0.6763962564593249  1.0000
  C   C52       1.0  0.77088782740795  0.8560243322856862  0.823603743774858  1.0000
  C   C53       1.0  0.6487386399200608  0.6652709978478992  0.21372117485723346  1.0000
  C   C54       1.0  0.3512613598101048  0.1652709981459637  0.2862788250813333  1.0000
  C   C55       1.0  0.3512613601872838  0.33472900216940676  0.786278825693668  1.0000
  C   C56       1.0  0.6487386398490574  0.8347290018713422  0.713721174540515  1.0000
  C   C57       1.0  0.6368177970222931  0.7495399159676087  0.16229440594256325  1.0000
  C   C58       1.0  0.36318220370014775  0.24953991565223826  0.33770559401543304  1.0000
  C   C59       1.0  0.3631822036291445  0.2504600840496972  0.8377055936987146  1.0000
  C   C60       1.0  0.6368177969512898  0.7504600843650677  0.6622944056258447  1.0000
  C   C61       1.0  0.7639692945534631  0.7930873617402774  0.18153214940694298  1.0000
  C   C62       1.0  0.23603070517670252  0.2930873620383419  0.3184678505316238  1.0000
  C   C63       1.0  0.23603070510569918  0.20691263827702855  0.8184678502149052  1.0000
  C   C64       1.0  0.7639692944824598  0.7069126379789641  0.6815321490902245  1.0000
  C   C65       1.0  0.7531085009523764  0.8720242436372495  0.1347447394651337  1.0000
  C   C66       1.0  0.24689149877778913  0.37202424332187894  0.36525526047343304  1.0000
  C   C67       1.0  0.2468914987067859  0.1279757563800565  0.8652552601567146  1.0000
  C   C68       1.0  0.7531085013295554  0.6279757566954269  0.6347447400774684  1.0000
  C   C69       1.0  0.6151015410759957  0.9056009407922947  0.06926655329296068  1.0000
  C   C70       1.0  0.3848984586541697  0.4056009410903592  0.430733446645606  1.0000
  C   C71       1.0  0.38489845858316657  0.09439905922501124  0.9307334463288877  1.0000
  C   C72       1.0  0.6151015414531746  0.5943990589269468  0.5692665539052952  1.0000
  C   C73       1.0  0.4946639817033447  0.8580609001782616  0.054175752735598964  1.0000
  C   C74       1.0  0.5053360180268208  0.35806089986289125  0.44582424720296776  1.0000
  C   C75       1.0  0.5053360184039998  0.14193909983904424  0.9458242478153025  1.0000
  C   C76       1.0  0.49466398163234143  0.6419391001544147  0.5541757524188804  1.0000
  N   N1        1.0  0.8525808407999921  0.22629282472928994  0.11020889358805563  1.0000
  N   N2        1.0  0.14741915893017332  0.7262928244312254  0.38979110635051106  1.0000
  N   N3        1.0  0.14741915930735228  0.773707175288016  0.8897911069628457  1.0000
  N   N4        1.0  0.8525808407289889  0.2737071755860805  0.6102088932713371  1.0000
  N   N5        1.0  0.8456918904454306  0.2315994862146823  0.3036296036684419  1.0000
  N   N6        1.0  0.15430810928473487  0.7315994859166178  0.1963703962701248  1.0000
  N   N7        1.0  0.15430810921373161  0.7684005138026236  0.6963703959534063  1.0000
  N   N8        1.0  0.8456918908226096  0.26840051410068816  0.8036296042807766  1.0000
  N   N9        1.0  0.3045805377813287  0.5103274595250884  0.03949617395143342  1.0000
  N   N10       1.0  0.6954194619488369  0.010327459823152915  0.46050382598713335  1.0000
  N   N11       1.0  0.6954194618778337  0.48967254049221753  0.9605038256704149  1.0000
  N   N12       1.0  0.30458053815850766  0.989672540194153  0.5394961745637681  1.0000
  N   N13       1.0  0.5410480870178186  0.6123399048868443  0.15074107846484155  1.0000
  N   N14       1.0  0.458951912712347  0.11233990518490873  0.34925892147372517  1.0000
  N   N15       1.0  0.4589519126413438  0.38766009513046173  0.8492589211570067  1.0000
  N   N16       1.0  0.5410480873949974  0.8876600948323972  0.6507410790771762  1.0000
  N   N17       1.0  0.5030354557240111  0.7817046839717204  0.09874259094564881  1.0000
  N   N18       1.0  0.4969645440061544  0.28170468426978496  0.40125740899291795  1.0000
  N   N19       1.0  0.49696454393515116  0.21829531604558547  0.9012574086761993  1.0000
  N   N20       1.0  0.5030354561011899  0.718295315747521  0.5987425915579835  1.0000
  O   O1        1.0  0.8999984539397626  0.3413399263812095  0.02543074684197901  1.0000
  O   O2        1.0  0.10000154579040281  0.8413399260831451  0.4745692530965877  1.0000
  O   O3        1.0  0.10000154571939952  0.6586600736360964  0.9745692527798692  1.0000
  O   O4        1.0  0.8999984543169416  0.1586600739341609  0.5254307474543136  1.0000
  O   O5        1.0  0.8730298388698791  0.35190313171531834  0.40840138357482497  1.0000
  O   O6        1.0  0.12697016086028637  0.8519031314172538  0.09159861636374172  1.0000
  O   O7        1.0  0.12697016123746532  0.6480968683019875  0.5915986169760763  1.0000
  O   O8        1.0  0.8730298387988757  0.14809686860005214  0.9084013832581066  1.0000
  S   S1        1.0  0.8378200035646827  0.08337291783301869  0.21083818152761735  1.0000
  S   S2        1.0  0.16217999616548293  0.5833729181483891  0.2891618184109494  1.0000
  S   S3        1.0  0.16217999609447964  0.9166270821842872  0.7891618180942308  1.0000
  S   S4        1.0  0.8378200034936794  0.4166270818689168  0.7108381812108989  1.0000
