data_image0
_chemical_formula_structural       H40C28N4O6
_chemical_formula_sum              "H40 C28 N4 O6"
_cell_length_a       5.087995193302634
_cell_length_b       5.204207176455009
_cell_length_c       24.308303491131703
_cell_angle_alpha    89.16000059391888
_cell_angle_beta     87.3310119496972
_cell_angle_gamma    89.42742860112821

_space_group_name_H-M_alt    "P 1"
_space_group_IT_number       1

loop_
  _space_group_symop_operation_xyz
  'x, y, z'

loop_
  _atom_site_type_symbol
  _atom_site_label
  _atom_site_symmetry_multiplicity
  _atom_site_fract_x
  _atom_site_fract_y
  _atom_site_fract_z
  _atom_site_occupancy
  H   H1        1.0  0.04799570458937929  0.48960092470719463  0.20915040907440505  1.0000
  H   H2        1.0  0.9520042964790315  0.5103990753904718  0.790849590569055  1.0000
  H   H3        1.0  0.094037458604612  0.7967926252499836  0.2844124784769527  1.0000
  H   H4        1.0  0.9059625424653768  0.20320737483954143  0.715587521577896  1.0000
  H   H5        1.0  0.7849523923845244  0.3714613440537474  0.33122592645498683  1.0000
  H   H6        1.0  0.21504760671813788  0.6285386560199542  0.6687740736193857  1.0000
  H   H7        1.0  0.7035744147470809  0.0697877715138152  0.2531849927570421  1.0000
  H   H8        1.0  0.2964255863229079  0.9302122285757098  0.7468150072978064  1.0000
  H   H9        1.0  0.09935435061426105  0.8709839713671063  0.3736151883735865  1.0000
  H   H10       1.0  0.9006456484884009  0.12901602870659531  0.6263848117007861  1.0000
  H   H11       1.0  0.48679283235844556  0.227318728205209  0.41359194455132353  1.0000
  H   H12       1.0  0.5132071687115434  0.772681271884316  0.586408055503525  1.0000
  H   H13       1.0  0.3962248700082664  0.9920641617249623  0.463355131238805  1.0000
  H   H14       1.0  0.6037751290943958  0.007935838348739193  0.5366448688355676  1.0000
  H   H15       1.0  0.9175268327685727  0.11402957263355835  0.4537513902760491  1.0000
  H   H16       1.0  0.08247316633408959  0.8859704274401432  0.5462486097983235  1.0000
  H   H17       1.0  0.014313238459991013  0.3612318902597188  0.4071666112940905  1.0000
  H   H18       1.0  0.985686760641093  0.638768109822124  0.5928333883688937  1.0000
  H   H19       1.0  0.1956296671709891  0.31392459763564456  0.5259562450864746  1.0000
  H   H20       1.0  0.804370331931673  0.6860754024380571  0.47404375498789786  1.0000
  H   H21       1.0  0.28092464013667273  0.5620543495230871  0.4785496997807189  1.0000
  H   H22       1.0  0.7190753589659895  0.43794565055061435  0.5214503002936538  1.0000
  H   H23       1.0  0.3755841252802933  0.062465141134320744  0.18060907832849465  1.0000
  H   H24       1.0  0.624415873822369  0.9375348589393808  0.819390921745878  1.0000
  H   H25       1.0  0.5196563634371174  0.6901764818216315  0.06481325877927442  1.0000
  H   H26       1.0  0.4803436376328716  0.3098235182678936  0.9351867412755741  1.0000
  H   H27       1.0  0.3918708587243497  0.4576144905814919  0.11088694727961816  1.0000
  H   H28       1.0  0.6081291403767343  0.542385509500351  0.889113052383366  1.0000
  H   H29       1.0  0.8425227551601301  0.2892528106184367  0.12800672510459113  1.0000
  H   H30       1.0  0.15747724590985895  0.7107471894710883  0.8719932749502575  1.0000
  H   H31       1.0  0.9826830184880273  0.5360932958204785  0.08608264412690299  1.0000
  H   H32       1.0  0.017316980649169166  0.4639067023314933  0.9139173559514193  1.0000
  H   H33       1.0  0.6055803412779511  0.1254789669670523  0.04751513279945242  1.0000
  H   H34       1.0  0.39441965982499394  0.8745210312088841  0.9524848668479574  1.0000
  H   H35       1.0  0.7384755534385011  0.3747475835382977  0.0056326440354462475  1.0000
  H   H36       1.0  0.2615244476314878  0.6252524165512274  0.9943673560194023  1.0000
  H   H37       1.0  0.0653640565864396  0.9546403149520118  0.06076602694012147  1.0000
  H   H38       1.0  0.9346359444835491  0.04535968513751332  0.9392339731147271  1.0000
  H   H39       1.0  0.19256952893690862  0.2035788716298705  0.018328392807227093  1.0000
  H   H40       1.0  0.8074304701657535  0.796421128443831  0.9816716072671455  1.0000
  C   C1        1.0  0.20558628664966855  0.46285989133866284  0.23777141670823174  1.0000
  C   C2        1.0  0.7944137124529936  0.5371401087350387  0.7622285833661407  1.0000
  C   C3        1.0  0.23250586236454215  0.63665281759433  0.28023029634136254  1.0000
  C   C4        1.0  0.7674941387038686  0.36334718250333636  0.7197697033020977  1.0000
  C   C5        1.0  0.4421524890638814  0.605234787380337  0.3150147497395602  1.0000
  C   C6        1.0  0.5578475100387807  0.39476521269336456  0.6849852503348124  1.0000
  C   C7        1.0  0.6170753560720615  0.39968991890933747  0.3056121439486994  1.0000
  C   C8        1.0  0.3829246430306006  0.6003100811643641  0.6943878561256732  1.0000
  C   C9        1.0  0.5742812470964279  0.2334526755570292  0.2628612402617653  1.0000
  C   C10       1.0  0.4257187520062342  0.7665473245166723  0.7371387598126072  1.0000
  C   C11       1.0  0.4955175866663051  0.788029935932948  0.3599874328348691  1.0000
  C   C12       1.0  0.504482412436357  0.21197006414075345  0.6400125672395035  1.0000
  C   C13       1.0  0.3265791236381683  0.09694058106097596  0.4269256826904246  1.0000
  C   C14       1.0  0.6734208774318206  0.9030594190285492  0.573074317364424  1.0000
  C   C15       1.0  0.07837791829450165  0.24773277185821974  0.44279839356607864  1.0000
  C   C16       1.0  0.9216220808411167  0.7522672263018931  0.5572016061008553  1.0000
  C   C17       1.0  0.12356148698887687  0.4255926414318828  0.49071791059682485  1.0000
  C   C18       1.0  0.8764385140811118  0.5744073586576423  0.5092820894580238  1.0000
  C   C19       1.0  0.5732677230426599  0.7672613523798316  0.14886529502569698  1.0000
  C   C20       1.0  0.42673227802732905  0.23273864770969357  0.8511347050291516  1.0000
  C   C21       1.0  0.5650298831132802  0.579755438466668  0.1021930842621677  1.0000
  C   C22       1.0  0.43497011598938196  0.42024456160703355  0.897806915812205  1.0000
  C   C23       1.0  0.8088360121881658  0.4127334430400119  0.09181026723962951  1.0000
  C   C24       1.0  0.1911639869144962  0.5872665570336896  0.908189732834743  1.0000
  C   C25       1.0  0.7801779103844841  0.24771711489342804  0.04094262881268305  1.0000
  C   C26       1.0  0.21982209072003922  0.7522828832743671  0.9590573712461153  1.0000
  C   C27       1.0  0.019027492184101727  0.08026236733294313  0.025551989790473822  1.0000
  C   C28       1.0  0.9809725088858872  0.9197376327565819  0.9744480102643748  1.0000
  N   N1        1.0  0.37223743100644885  0.2639089517005521  0.22967327151454212  1.0000
  N   N2        1.0  0.6277625681307477  0.7360910464514197  0.7703267285637801  1.0000
  N   N3        1.0  0.28794639127565397  0.9158878259448634  0.38300909002114103  1.0000
  N   N4        1.0  0.71205360782543  0.08411217413697951  0.6169909096418431  1.0000
  O   O1        1.0  0.7251757353230306  0.8191445876941844  0.37514869308718246  1.0000
  O   O2        1.0  0.27482426377805347  0.18085541238765826  0.6248513065758017  1.0000
  O   O3        1.0  0.3770145311157056  0.9385688391095729  0.14731814451508948  1.0000
  O   O4        1.0  0.6229854679869564  0.061431160964128796  0.8526818555592831  1.0000
  O   O5        1.0  0.7376894348687767  0.7613811399220998  0.18468992267491427  1.0000
  O   O6        1.0  0.26231056620121224  0.23861886016742528  0.8153100773799342  1.0000
