data_image0
_chemical_formula_structural       H44C42N4O12
_chemical_formula_sum              "H44 C42 N4 O12"
_cell_length_a       6.574380170957238
_cell_length_b       9.532340792877138
_cell_length_c       15.275637495147302
_cell_angle_alpha    90.0
_cell_angle_beta     96.64762073009823
_cell_angle_gamma    90.0

_space_group_name_H-M_alt    "P 1"
_space_group_IT_number       1

loop_
  _space_group_symop_operation_xyz
  'x, y, z'

loop_
  _atom_site_type_symbol
  _atom_site_label
  _atom_site_symmetry_multiplicity
  _atom_site_fract_x
  _atom_site_fract_y
  _atom_site_fract_z
  _atom_site_occupancy
  H   H1        1.0  0.5178936419761674  0.09716820559878804  0.3939060576321655  1.0000
  H   H2        1.0  0.48210635811540636  0.5971682049233433  0.6060939421238946  1.0000
  H   H3        1.0  0.2919799835695607  0.25693009652257476  0.29807562931774273  1.0000
  H   H4        1.0  0.7080200165220132  0.7569300968961903  0.7019243704383173  1.0000
  H   H5        1.0  0.031553790860011595  0.024456020306596344  0.5540263284473382  1.0000
  H   H6        1.0  0.9684462092292598  0.5244560206802119  0.44597367196324345  1.0000
  H   H7        1.0  0.8102266350137839  0.19144984003967533  0.46232863343459757  1.0000
  H   H8        1.0  0.1897733650777898  0.6914498393642307  0.5376713663214624  1.0000
  H   H9        1.0  0.3470818426043633  0.9158267543816003  0.5768147967973426  1.0000
  H   H10       1.0  0.652918157484908  0.415826755057045  0.423185203613239  1.0000
  H   H11       1.0  0.20058754370744128  0.516038248829256  0.3438385934664855  1.0000
  H   H12       1.0  0.7994124563841325  0.016038248455640426  0.6561614062895745  1.0000
  H   H13       1.0  0.7031725255016448  0.8610938371122288  0.4201573929985185  1.0000
  H   H14       1.0  0.29682747458762665  0.36109383778767346  0.5798426074120632  1.0000
  H   H15       1.0  0.8832675948574339  0.9231369651172541  0.3509526280312431  1.0000
  H   H16       1.0  0.11673240523413987  0.4231369647436384  0.6490473717248169  1.0000
  H   H17       1.0  0.8028961121778163  0.7446251287305906  0.34423175770613584  1.0000
  H   H18       1.0  0.1971038879137574  0.24462512835697514  0.6557682420499241  1.0000
  H   H19       1.0  0.961564337052723  0.7801513428429783  0.14118278127494355  1.0000
  H   H20       1.0  0.03843566303885063  0.28015134246936274  0.8588172184811165  1.0000
  H   H21       1.0  0.4992622231231057  0.6677349098509134  0.3826855789514865  1.0000
  H   H22       1.0  0.5007377769661656  0.1677349094772978  0.6173144214590952  1.0000
  H   H23       1.0  0.6089384964282315  0.9604160099732176  0.1552365643713806  1.0000
  H   H24       1.0  0.3910615036610399  0.4604160095996022  0.8447634360392011  1.0000
  H   H25       1.0  0.7786630783730409  0.04379201489648004  0.2386917324397762  1.0000
  H   H26       1.0  0.22133692171853275  0.5437920142210354  0.7613082673162838  1.0000
  H   H27       1.0  0.514193094096595  0.08947151791271386  0.22461424100555716  1.0000
  H   H28       1.0  0.48580690599267645  0.5894715172372691  0.7753857594050245  1.0000
  H   H29       1.0  0.2551503236164153  0.9450426506710091  0.168461315659675  1.0000
  H   H30       1.0  0.7448496764751584  0.44504265029739365  0.831538684096385  1.0000
  H   H31       1.0  0.9495933374132249  0.5797136558660618  0.22358767814399547  1.0000
  H   H32       1.0  0.050406662678348785  0.07971365549244623  0.7764123216120645  1.0000
  H   H33       1.0  0.2793420520388329  0.7898705820113081  0.8944862034520759  1.0000
  H   H34       1.0  0.7206579465190888  0.28987058163769264  0.10551379688122628  1.0000
  H   H35       1.0  0.16742750395213235  0.4047991520491303  0.10283989755034421  1.0000
  H   H36       1.0  0.832572496137139  0.9047991524227459  0.8971601028602376  1.0000
  H   H37       1.0  0.5478358195048925  0.7331666378548115  0.0179422406260205  1.0000
  H   H38       1.0  0.45216418058437896  0.233166637481196  0.9820577597845612  1.0000
  H   H39       1.0  0.8950179592660532  0.4639494502026877  0.9820442590636899  1.0000
  H   H40       1.0  0.10498204082552057  0.9639494495272429  0.017955740692370208  1.0000
  H   H41       1.0  0.5968395446837155  0.4168330367467605  0.24733858655161212  1.0000
  H   H42       1.0  0.4031604554078584  0.9168330360713157  0.7526614132044479  1.0000
  H   H43       1.0  0.9633665976162651  0.7327334389071737  0.8234028279779959  1.0000
  H   H44       1.0  0.036633402475308656  0.23273343958261838  0.1765971717780641  1.0000
  C   C1        1.0  0.2880985814041261  0.047180462781613926  0.47856861695264175  1.0000
  C   C2        1.0  0.7119014186851453  0.5471804631552295  0.52143138345794  1.0000
  C   C3        1.0  0.36148680186645676  0.11633491543112238  0.4072161057830965  1.0000
  C   C4        1.0  0.6385131982228146  0.6163349147556777  0.5927838946274853  1.0000
  C   C5        1.0  0.033787890216763074  0.2328678000747398  0.3723079514920347  1.0000
  C   C6        1.0  0.9662121098725084  0.7328678004483553  0.627692048918547  1.0000
  C   C7        1.0  0.23519382464075214  0.20577135801372953  0.35427898794348456  1.0000
  C   C8        1.0  0.7648061754508216  0.7057713573382849  0.6457210118125755  1.0000
  C   C9        1.0  0.08861800659460946  0.07684030773924101  0.4985091422852551  1.0000
  C   C10       1.0  0.9113819934969642  0.5768403070637963  0.501490857470805  1.0000
  C   C11       1.0  0.9647835035555554  0.16997091220350402  0.44657971303201344  1.0000
  C   C12       1.0  0.03521649500466863  0.6699709125771196  0.5534202866467669  1.0000
  C   C13       1.0  0.8987215219433847  0.32167598144322046  0.31061384492322663  1.0000
  C   C14       1.0  0.1012784781458866  0.8216759807677757  0.6893861554873552  1.0000
  C   C15       1.0  0.4152511451790606  0.8170613912397903  0.27492061496004583  1.0000
  C   C16       1.0  0.5847488549102108  0.31706139191523497  0.7250793854505359  1.0000
  C   C17       1.0  0.219756530003678  0.6128987744925772  0.30814272660714004  1.0000
  C   C18       1.0  0.7802434700855934  0.11289877411896167  0.6918572738034418  1.0000
  C   C19       1.0  0.7529710079607854  0.8529321230390039  0.35403180755836433  1.0000
  C   C20       1.0  0.24702899213078824  0.35293212266538837  0.6459681921976956  1.0000
  C   C21       1.0  0.08784489310166248  0.7626605393118473  0.19264766159124308  1.0000
  C   C22       1.0  0.9121551069876089  0.26266053893823166  0.8073523388193387  1.0000
  C   C23       1.0  0.3868996272478312  0.6977152175433896  0.32830709831846616  1.0000
  C   C24       1.0  0.6131003728437426  0.19771521821883437  0.6716929014375939  1.0000
  C   C25       1.0  0.6236639818187997  0.0025223772966621737  0.22275458315137597  1.0000
  C   C26       1.0  0.37633601827047175  0.5025223776702777  0.7772454172592057  1.0000
  C   C27       1.0  0.2529122806438409  0.8505748793684053  0.20799193673969205  1.0000
  C   C28       1.0  0.7470877194477328  0.3505748789947896  0.792008063016368  1.0000
  C   C29       1.0  0.5318640441609068  0.5376130670684103  0.14365240104350793  1.0000
  C   C30       1.0  0.46813595593066687  0.03761306774385497  0.8563475987125521  1.0000
  C   C31       1.0  0.0702407850250852  0.6303006859017823  0.9302835211103754  1.0000
  C   C32       1.0  0.9297592150664887  0.1303006855281668  0.06971647864568459  1.0000
  C   C33       1.0  0.2550513226776611  0.7067432990891425  0.9409538877517738  1.0000
  C   C34       1.0  0.7449486774116103  0.20674329871552682  0.059046112658807985  1.0000
  C   C35       1.0  0.19137895127263843  0.48869978646597917  0.057002774382746216  1.0000
  C   C36       1.0  0.8086210488189352  0.9886997868395947  0.9429972253733139  1.0000
  C   C37       1.0  0.40505841118464775  0.6740125756730077  0.009364466005990927  1.0000
  C   C38       1.0  0.5949415889046237  0.1740125752993921  0.9906355344045908  1.0000
  C   C39       1.0  0.3756095236194702  0.5648717903606115  0.06835542187319994  1.0000
  C   C40       1.0  0.6243904764698012  0.06487178998699593  0.9316445785373819  1.0000
  C   C41       1.0  0.03935016970527185  0.5213570557311121  0.9894230066547697  1.0000
  C   C42       1.0  0.9606498303863019  0.021357056406556864  0.01057699310129029  1.0000
  N   N1        1.0  0.5891350302586191  0.8926830686077083  0.2859294484922268  1.0000
  N   N2        1.0  0.41086496983295456  0.3926830692831531  0.7140705512638332  1.0000
  N   N3        1.0  0.07453458508560554  0.6443177225251311  0.24082078419670683  1.0000
  N   N4        1.0  0.9254654150036659  0.1443177232005758  0.759179216213875  1.0000
  O   O1        1.0  0.4138701179909687  0.955517926594276  0.5253085847180083  1.0000
  O   O2        1.0  0.5861298820983027  0.4555179262206604  0.47469141569257345  1.0000
  O   O3        1.0  0.9518312117041341  0.3491284367934887  0.2350992660372951  1.0000
  O   O4        1.0  0.04816878838743967  0.8491284371671043  0.764900733718765  1.0000
  O   O5        1.0  0.7294268730582009  0.36935446565557756  0.334048804038604  1.0000
  O   O6        1.0  0.27057312703107056  0.8693544660291932  0.6659511963719776  1.0000
  O   O7        1.0  0.6870578865364103  0.6115846481649326  0.16048383851984183  1.0000
  O   O8        1.0  0.3129421135551635  0.11158464884037737  0.8395161612362183  1.0000
  O   O9        1.0  0.9201552948996355  0.6565232313847112  0.8641822524992986  1.0000
  O   O10       1.0  0.07984470519193818  0.15652323101109575  0.13581774725676138  1.0000
  O   O11       1.0  0.4894149348155473  0.4283857049101027  0.19318302530839002  1.0000
  O   O12       1.0  0.5105850652760263  0.9283857052837181  0.8068169744476701  1.0000
