data_image0
_chemical_formula_structural       H92C60N14F12P2
_chemical_formula_sum              "H92 C60 N14 F12 P2"
_cell_length_a       10.709439674214735
_cell_length_b       10.920407474668808
_cell_length_c       14.985918094035233
_cell_angle_alpha    95.55151459803237
_cell_angle_beta     95.54983445152548
_cell_angle_gamma    111.33525189588534

_space_group_name_H-M_alt    "P 1"
_space_group_IT_number       1

loop_
  _space_group_symop_operation_xyz
  'x, y, z'

loop_
  _atom_site_type_symbol
  _atom_site_label
  _atom_site_symmetry_multiplicity
  _atom_site_fract_x
  _atom_site_fract_y
  _atom_site_fract_z
  _atom_site_occupancy
  H   H1        1.0  0.021239251107147864  0.41962662162331094  0.08792625026502426  1.0000
  H   H2        1.0  0.9787607488110365  0.5803733792779502  0.9120737503150222  1.0000
  H   H3        1.0  0.9901600225619311  0.5635280494450088  0.07736520470572852  1.0000
  H   H4        1.0  0.009839976827705132  0.4364719503310483  0.9226347951977923  1.0000
  H   H5        1.0  0.7846668887475576  0.37626747842039837  0.012531122648343742  1.0000
  H   H6        1.0  0.21533311194751278  0.623732522323358  0.9874688772500004  1.0000
  H   H7        1.0  0.7483988729861587  0.4421877707688407  0.11568241254262777  1.0000
  H   H8        1.0  0.2516011267814776  0.557812229990039  0.8843175873601047  1.0000
  H   H9        1.0  0.7836296576644751  0.29582814339799884  0.10994947790784461  1.0000
  H   H10       1.0  0.2163703417251613  0.7041718563780583  0.8900505219956764  1.0000
  H   H11       1.0  0.9207205436547354  0.9283608227994798  0.43221956202917966  1.0000
  H   H12       1.0  0.07927945666233487  0.07163917696145386  0.567780437869953  1.0000
  H   H13       1.0  0.9172843407656978  0.7877957572804527  0.4843572963890924  1.0000
  H   H14       1.0  0.0827156595513725  0.2122042424804811  0.5156427035100402  1.0000
  H   H15       1.0  0.8293215592301816  0.7663304256130075  0.3740665606427102  1.0000
  H   H16       1.0  0.17067844146488875  0.2336695751307488  0.6259334392556339  1.0000
  H   H17       1.0  0.062252734069236544  0.891809598626638  0.3241363679738538  1.0000
  H   H18       1.0  0.9377472662478338  0.10819040113429566  0.6758636319252789  1.0000
  H   H19       1.0  0.13895530878447337  0.881621618183462  0.4295029562043327  1.0000
  H   H20       1.0  0.8610446906051629  0.11837838159259517  0.5704970436991882  1.0000
  H   H21       1.0  0.3473550588005071  0.3973722940340184  0.4730529578397253  1.0000
  H   H22       1.0  0.6526449405891291  0.6026277057420387  0.5269470420637956  1.0000
  H   H23       1.0  0.3784252892083431  0.5616434266351287  0.4515287466025891  1.0000
  H   H24       1.0  0.6215747103318411  0.43835657328330985  0.5484712539782457  1.0000
  H   H25       1.0  0.3441213093107072  0.4329027786846959  0.36042938156426474  1.0000
  H   H26       1.0  0.655878690078929  0.5670972210913613  0.6395706183392561  1.0000
  H   H27       1.0  0.14460003015893738  0.4448907101088839  0.4925292212955862  1.0000
  H   H28       1.0  0.855399970158133  0.5551092896520498  0.5074707786035465  1.0000
  H   H29       1.0  0.10930954436355213  0.3199095201323304  0.4009578852463716  1.0000
  H   H30       1.0  0.8906904559535181  0.6800904796286033  0.5990421146527609  1.0000
  H   H31       1.0  0.8434181675903314  0.6454255136054634  0.15002397074122006  1.0000
  H   H32       1.0  0.15658183179930485  0.3545744861705937  0.8499760291623009  1.0000
  H   H33       1.0  0.907931694160488  0.7886303962152161  0.23029414925126385  1.0000
  H   H34       1.0  0.09206830653458231  0.2113696045285401  0.7697058506470803  1.0000
  H   H35       1.0  0.10305601364653541  0.9185673426297847  0.9465579048100625  1.0000
  H   H36       1.0  0.8969439857431007  0.08143265714627228  0.05344209509345844  1.0000
  H   H37       1.0  0.41834461881175444  0.9639586352854188  0.13021283295075964  1.0000
  H   H38       1.0  0.581655380955882  0.036041365473460964  0.8697871669519728  1.0000
  H   H39       1.0  0.3779606135054989  0.03170996535035542  0.033007846167221494  1.0000
  H   H40       1.0  0.6220393868115713  0.9682900344105783  0.966992153731911  1.0000
  H   H41       1.0  0.385455077361363  0.8726924788215602  0.02036807343427937  1.0000
  H   H42       1.0  0.6145449220282733  0.1273075209544969  0.9796319264692416  1.0000
  H   H43       1.0  0.7845950812480447  0.8125260179539378  0.06509474232823624  1.0000
  H   H44       1.0  0.21540491829213967  0.1874739819645008  0.9349052582525987  1.0000
  H   H45       1.0  0.782910091535649  0.668830668745  0.9974321338579769  1.0000
  H   H46       1.0  0.21708990915942125  0.33116933199875637  0.002567866040367351  1.0000
  H   H47       1.0  0.8243523178272432  0.8213727737264713  0.9536007245710432  1.0000
  H   H48       1.0  0.17564768264037517  0.1786272261768438  0.0463992760054034  1.0000
  H   H49       1.0  0.10957867301861511  0.7562183426887125  0.5194447678299658  1.0000
  H   H50       1.0  0.8904213272984552  0.24378165707222132  0.4805552320691667  1.0000
  H   H51       1.0  0.09581613946612542  0.5970381654910561  0.5404836965864692  1.0000
  H   H52       1.0  0.9041838610014928  0.402961834412259  0.4595163039899774  1.0000
  H   H53       1.0  0.5778969305225129  0.7801017143535591  0.6415513387550902  1.0000
  H   H54       1.0  0.42210306924512336  0.21989828640532058  0.35844866114764223  1.0000
  H   H55       1.0  0.5866830457708038  0.9321989691532961  0.4060712858914467  1.0000
  H   H56       1.0  0.41331695361883247  0.06780103062276104  0.5939287140120741  1.0000
  H   H57       1.0  0.6799464856847726  0.843105581669581  0.453559803704366  1.0000
  H   H58       1.0  0.3200535150102977  0.15689441907417526  0.5464401961939781  1.0000
  H   H59       1.0  0.6789649300094507  0.9900221237753813  0.5154369758663101  1.0000
  H   H60       1.0  0.3210350693801856  0.009977876000675845  0.4845630240372108  1.0000
  H   H61       1.0  0.1979540230202372  0.546551503203659  0.6451103258443845  1.0000
  H   H62       1.0  0.8020459772968331  0.4534484965572748  0.3548896740547481  1.0000
  H   H63       1.0  0.2668088878770279  0.6966111154366648  0.7215594234920204  1.0000
  H   H64       1.0  0.7331911115126084  0.30338888433939243  0.2784405764115006  1.0000
  H   H65       1.0  0.3619826054478768  0.5943409650395911  0.7069527236259164  1.0000
  H   H66       1.0  0.6380173939417595  0.40565903473646614  0.2930472762776045  1.0000
  H   H67       1.0  0.04406375863596595  0.2520532250063532  0.27504320277469585  1.0000
  H   H68       1.0  0.9559362416811042  0.7479467747545805  0.7249567971244367  1.0000
  H   H69       1.0  0.0020714951634124026  0.2844048932880943  0.1666137801836205  1.0000
  H   H70       1.0  0.997928505531658  0.715595107455662  0.8333862197147236  1.0000
  H   H71       1.0  0.46574229070048223  0.26549521580602203  0.1759836880815221  1.0000
  H   H72       1.0  0.5342577099945881  0.7345047849377343  0.824016311816822  1.0000
  H   H73       1.0  0.48886810087365745  0.624106683045142  0.11500959955159705  1.0000
  H   H74       1.0  0.5111318998214129  0.3758933176986143  0.8849904003467471  1.0000
  H   H75       1.0  0.5638229356036552  0.5066922304187442  0.08865564986188312  1.0000
  H   H76       1.0  0.43617706509141524  0.49330777032501216  0.9113443500364611  1.0000
  H   H77       1.0  0.602567624423115  0.5998835137753764  0.19852218681446993  1.0000
  H   H78       1.0  0.39743237589395536  0.40011648598555727  0.8014778130846627  1.0000
  H   H79       1.0  0.17222767318739265  0.12546207420620545  0.30648590157257544  1.0000
  H   H80       1.0  0.8277723275076777  0.8745379265375509  0.6935140983257687  1.0000
  H   H81       1.0  0.2613086210277607  0.06217956476602795  0.23222212764610445  1.0000
  H   H82       1.0  0.7386913787398754  0.9378204359928517  0.767777872256628  1.0000
  H   H83       1.0  0.10125847925516492  0.06448924321240655  0.19190820809775613  1.0000
  H   H84       1.0  0.8987415201344714  0.9355107565636506  0.8080917918057647  1.0000
  H   H85       1.0  0.4316120629908415  0.7979313112697466  0.2536774285044313  1.0000
  H   H86       1.0  0.5683879374767768  0.20206868863356853  0.7463225720720152  1.0000
  H   H87       1.0  0.2658917311027942  0.7699708693959604  0.22745324604502057  1.0000
  H   H88       1.0  0.7341082682868421  0.23002913038009679  0.7725467538585004  1.0000
  H   H89       1.0  0.3152978590312676  0.6393529706424042  0.23988153105283838  1.0000
  H   H90       1.0  0.6847021414363508  0.36064702926091097  0.7601184695236083  1.0000
  H   H91       1.0  0.33285308724750035  0.7522501605225836  0.33438958670697383  1.0000
  H   H92       1.0  0.667146912292684  0.24774983939585485  0.665610413873861  1.0000
  C   C1        1.0  0.007013135427872309  0.5239123564329109  0.21370689780797988  1.0000
  C   C2        1.0  0.9929868650397462  0.4760876434704042  0.7862931027684668  1.0000
  C   C3        1.0  0.9977657319267609  0.6431204143348187  0.25119160124254775  1.0000
  C   C4        1.0  0.0022342683903093094  0.356879585426115  0.7488083986565849  1.0000
  C   C5        1.0  0.045534420672217975  0.6951562159822569  0.3430303238790596  1.0000
  C   C6        1.0  0.9544655787174182  0.3048437837938002  0.6569696760244614  1.0000
  C   C7        1.0  0.09559509170244403  0.6219931957573203  0.39917108534915174  1.0000
  C   C8        1.0  0.9044049080651921  0.3780068050015593  0.6008289145535807  1.0000
  C   C9        1.0  0.1062125453176152  0.5024373491111549  0.36305327901765905  1.0000
  C   C10       1.0  0.8937874549994551  0.497562650649779  0.6369467208814736  1.0000
  C   C11       1.0  0.06156435215626928  0.4544525274901179  0.2700471295627636  1.0000
  C   C12       1.0  0.9384356472333669  0.5455474722859393  0.7299528703407573  1.0000
  C   C13       1.0  0.9627769593561238  0.4765276762327786  0.11314665007885262  1.0000
  C   C14       1.0  0.03722304111149457  0.5234723236705366  0.8868533504975938  1.0000
  C   C15       1.0  0.8110736352351541  0.3928550323080378  0.08651459290000178  1.0000
  C   C16       1.0  0.18892636430503013  0.6071449676104007  0.9134854076808332  1.0000
  C   C17       1.0  0.9219354532074243  0.8281046028600133  0.41993475093136023  1.0000
  C   C18       1.0  0.07806454618221194  0.17189539691604386  0.5800652489721607  1.0000
  C   C19       1.0  0.04844230995378216  0.8306597682632544  0.37907755761360146  1.0000
  C   C20       1.0  0.9515576908918362  0.1693402326228833  0.6209224429620566  1.0000
  C   C21       1.0  0.31740910342733136  0.45704658054422875  0.4267238862404976  1.0000
  C   C22       1.0  0.682590896889739  0.542953419216705  0.573276113658635  1.0000
  C   C23       1.0  0.16483803926685928  0.4268997855283482  0.42298514222343797  1.0000
  C   C24       1.0  0.835161961050211  0.5731002142325856  0.5770148576756947  1.0000
  C   C25       1.0  0.9369464422343977  0.7158523388823768  0.19107435971047504  1.0000
  C   C26       1.0  0.0630535571552386  0.2841476608936803  0.8089256401930459  1.0000
  C   C27       1.0  0.2078951146710478  0.8817125681332565  0.07187877287547867  1.0000
  C   C28       1.0  0.7921048850965885  0.11828743262562327  0.9281212270272537  1.0000
  C   C29       1.0  0.09817990457604525  0.8784751150806294  0.010142495945514191  1.0000
  C   C30       1.0  0.9018200957410252  0.1215248846803044  0.9898575039536184  1.0000
  C   C31       1.0  0.9820082267800333  0.8136624216925172  0.04762065769294564  1.0000
  C   C32       1.0  0.017991772987602843  0.1863375790663624  0.9523793422097868  1.0000
  C   C33       1.0  0.35503559459337136  0.9405632490374678  0.06418972974750767  1.0000
  C   C34       1.0  0.6449644057236988  0.05943675072346588  0.935810270151625  1.0000
  C   C35       1.0  0.8360398142992627  0.7771976896775724  0.014683093689910805  1.0000
  C   C36       1.0  0.1639601860178076  0.22280231008336146  0.9853169062092219  1.0000
  C   C37       1.0  0.141441187357877  0.6742902470927924  0.49864737364225975  1.0000
  C   C38       1.0  0.8585588129591933  0.32570975266814123  0.5013526262568728  1.0000
  C   C39       1.0  0.49662494594461853  0.8213961106025529  0.5091538320579289  1.0000
  C   C40       1.0  0.5033750543724518  0.17860388915838082  0.4908461678412037  1.0000
  C   C41       1.0  0.49310843425254697  0.7713475432827125  0.5924567984387495  1.0000
  C   C42       1.0  0.5068915660645232  0.22865245647822116  0.4075432014603831  1.0000
  C   C43       1.0  0.3570589880635602  0.7052697704731165  0.5992622470546407  1.0000
  C   C44       1.0  0.6429410122535101  0.2947302292878173  0.400737752844492  1.0000
  C   C45       1.0  0.6166727012304049  0.8999718389385224  0.4686082611563812  1.0000
  C   C46       1.0  0.38332729908666546  0.1000281608224115  0.5313917387427514  1.0000
  C   C47       1.0  0.29184009153901985  0.6318681965709476  0.6716548428955978  1.0000
  C   C48       1.0  0.7081599087780505  0.3681318031899861  0.3283451570035348  1.0000
  C   C49       1.0  0.07240810886040155  0.32773606836717334  0.2297390843177088  1.0000
  C   C50       1.0  0.9275918914566686  0.6722639313937605  0.7702609155814238  1.0000
  C   C51       1.0  0.4052267357997808  0.4418177749610149  0.1703691421557751  1.0000
  C   C52       1.0  0.5947732645172895  0.5581822247999187  0.8296308577433577  1.0000
  C   C53       1.0  0.3936194127082233  0.31261819915516487  0.18501381836210914  1.0000
  C   C54       1.0  0.6063805876088469  0.6873818006057688  0.8149861815370234  1.0000
  C   C55       1.0  0.26709419288822905  0.25424659002660405  0.21218412062272665  1.0000
  C   C56       1.0  0.7329058065014071  0.7457534097494531  0.7878158792807943  1.0000
  C   C57       1.0  0.520905278980908  0.5485574847298805  0.14173641790288252  1.0000
  C   C58       1.0  0.4790947204087282  0.4514425150461765  0.8582635820006383  1.0000
  C   C59       1.0  0.19691427324430494  0.11997542175070364  0.23688221932714754  1.0000
  C   C60       1.0  0.8030857262958794  0.8800245781677349  0.7631177812536873  1.0000
  N   N1        1.0  0.025298418261778737  0.7820281821917084  0.12746148712589553  1.0000
  N   N2        1.0  0.9747015815058575  0.21797181856717135  0.8725385127768369  1.0000
  N   N3        1.0  0.1628032148747469  0.8224307683252223  0.1438521663148859  1.0000
  N   N4        1.0  0.8371967854423235  0.1775692314357113  0.8561478335842466  1.0000
  N   N5        1.0  0.2871431265731562  0.7186320318039163  0.5223296026711464  1.0000
  N   N6        1.0  0.7128568741219141  0.28136796893983995  0.4776703972271979  1.0000
  N   N7        1.0  0.37004412527916186  0.7886197339580472  0.4660158088659218  1.0000
  N   N8        1.0  0.6299558750379084  0.2113802658028866  0.5339841910332108  1.0000
  N   N9        1.0  0.21006975077825668  0.3472128691222329  0.21235466362765074  1.0000
  N   N10       1.0  0.7899302487619276  0.6527871307962057  0.7876453369531842  1.0000
  N   N11       1.0  0.292476099692172  0.4626082735314327  0.18705725986769306  1.0000
  N   N12       1.0  0.7075239002260122  0.5373917273698282  0.8129427407123533  1.0000
  N   N13       1.0  0.3360514133833962  0.7391711767774887  0.2643039918427636  1.0000
  N   N14       1.0  0.66394858600624  0.2608288229985684  0.7356960080607573  1.0000
  F   F1        1.0  0.7398128514390019  0.12340873441354486  0.18702637058604793  1.0000
  F   F2        1.0  0.26018714795063425  0.8765912653625122  0.812973629317473  1.0000
  F   F3        1.0  0.696620455078238  0.8456643880496336  0.2684688259376905  1.0000
  F   F4        1.0  0.30337954431139824  0.15433561172642343  0.7315311739658303  1.0000
  F   F5        1.0  0.865122917182167  0.9897234026727996  0.199409625622605  1.0000
  F   F6        1.0  0.13487708220746925  0.010276597103257446  0.800590374280916  1.0000
  F   F7        1.0  0.6417768917105191  0.9001709749048091  0.12932434657695296  1.0000
  F   F8        1.0  0.3582231078296651  0.09982902501362927  0.8706756540038819  1.0000
  F   F9        1.0  0.7969935948110218  0.07008060104817519  0.3268674318603502  1.0000
  F   F10       1.0  0.20300640472916248  0.9299193988702633  0.6731325687204848  1.0000
  F   F11       1.0  0.5727820687803679  0.9801340520462594  0.2570352166009524  1.0000
  F   F12       1.0  0.4272179315367024  0.019865947714674478  0.74296478329818  1.0000
  P   P1        1.0  0.7198126300438554  0.9853716967703391  0.22806960523784137  1.0000
  P   P2        1.0  0.28018737027321494  0.01462830299059485  0.7719303946612912  1.0000
