data_image0
_chemical_formula_structural       H44C36N4O16
_chemical_formula_sum              "H44 C36 N4 O16"
_cell_length_a       13.74582606466918
_cell_length_b       6.7009036679403025
_cell_length_c       10.415110296443896
_cell_angle_alpha    90.0
_cell_angle_beta     110.37897937092859
_cell_angle_gamma    90.0

_space_group_name_H-M_alt    "P 1"
_space_group_IT_number       1

loop_
  _space_group_symop_operation_xyz
  'x, y, z'

loop_
  _atom_site_type_symbol
  _atom_site_label
  _atom_site_symmetry_multiplicity
  _atom_site_fract_x
  _atom_site_fract_y
  _atom_site_fract_z
  _atom_site_occupancy
  H   H1        1.0  0.8126960624164298  0.26063369756467886  0.5649562231063189  1.0000
  H   H2        1.0  0.18730393756914926  0.7606336969721988  0.9350437764535784  1.0000
  H   H3        1.0  0.18730393777728918  0.7393663027426972  0.43504377733459526  1.0000
  H   H4        1.0  0.8126960618492474  0.2393663018428412  0.06495622266994018  1.0000
  H   H5        1.0  0.030640982748773922  0.4324967815707777  0.4255792845626337  1.0000
  H   H6        1.0  0.9693590168777625  0.9324967809782978  0.07442071544190174  1.0000
  H   H7        1.0  0.9693590166688776  0.5675032187365985  0.5744207155206855  1.0000
  H   H8        1.0  0.030640983315956365  0.06750321932907838  0.9255792849990123  1.0000
  H   H9        1.0  0.6707748654482049  0.8072771491822904  0.45995158539466274  1.0000
  H   H10       1.0  0.3292251341790766  0.30727714977477033  0.040048413650072064  1.0000
  H   H11       1.0  0.3292251347462591  0.19272285112508575  0.5400484140864508  1.0000
  H   H12       1.0  0.67077486523932  0.6927228505326058  0.9599515854734466  1.0000
  H   H13       1.0  0.8496235266333442  0.6732228432984824  0.20027530453546596  1.0000
  H   H14       1.0  0.15037647299319226  0.17322284389096235  0.2997246954690696  1.0000
  H   H15       1.0  0.1503764727843073  0.32677715551655767  0.7997246955478534  1.0000
  H   H16       1.0  0.8496235272005267  0.8267771564164137  0.7002753049718446  1.0000
  H   H17       1.0  0.9458093285398929  0.987934479893045  0.2726546535737626  1.0000
  H   H18       1.0  0.05419067186271113  0.48793448048552496  0.22734534678836774  1.0000
  H   H19       1.0  0.054190671654571226  0.01206552041433112  0.727345345907351  1.0000
  H   H20       1.0  0.9458093283310077  0.5120655198218511  0.7726546536525464  1.0000
  H   H21       1.0  0.7175145026871643  0.4571565212400082  0.2148933364359944  1.0000
  H   H22       1.0  0.2824854977154396  0.9571565206475282  0.28510666392613593  1.0000
  H   H23       1.0  0.28248549750655466  0.5428434790673679  0.7851066640049198  1.0000
  H   H24       1.0  0.7175145024782794  0.042843478167511787  0.7148933365147783  1.0000
  H   H25       1.0  0.6433372405149862  0.5031508087679074  0.32057026526674004  1.0000
  H   H26       1.0  0.35666275988761775  0.0031508078680512817  0.17942973509539037  1.0000
  H   H27       1.0  0.3566627596787328  0.49684919153946877  0.6794297351741742  1.0000
  H   H28       1.0  0.6433372403061013  0.9968491909469888  0.8205702653455238  1.0000
  H   H29       1.0  0.559405980094588  0.7610420463733538  0.5737498373080506  1.0000
  H   H30       1.0  0.440594019890246  0.2610420454734977  0.9262501632116473  1.0000
  H   H31       1.0  0.440594020099131  0.23895795393402233  0.4262501631328635  1.0000
  H   H32       1.0  0.5594059803034729  0.7389579533415424  0.07374983722926684  1.0000
  H   H33       1.0  0.423399891157929  0.8103734464920497  0.5314021505406413  1.0000
  H   H34       1.0  0.57660010882765  0.3103734455921936  0.9685978490192562  1.0000
  H   H35       1.0  0.57660010903579  0.18962655381532642  0.4685978499002729  1.0000
  H   H36       1.0  0.42339989136681394  0.6896265547151824  0.031402150461857375  1.0000
  H   H37       1.0  0.37844800952314245  0.5707517790918454  0.33949892382938984  1.0000
  H   H38       1.0  0.6215519908794614  0.07075177968432536  0.1605010765327405  1.0000
  H   H39       1.0  0.6215519906713215  0.42924821972319466  0.6605010756517238  1.0000
  H   H40       1.0  0.3784480093142575  0.9292482206230507  0.8394989239081738  1.0000
  H   H41       1.0  0.47261251681384936  0.743669317892423  0.3207507591452078  1.0000
  H   H42       1.0  0.5273874828126872  0.24366931848490297  0.17924924085932767  1.0000
  H   H43       1.0  0.5273874833798696  0.2563306824149531  0.6792492412957064  1.0000
  H   H44       1.0  0.47261251660496423  0.7563306818224731  0.8207507592239917  1.0000
  C   C1        1.0  0.862552454511072  0.08037372520019312  0.40286478716534885  1.0000
  C   C2        1.0  0.13744754511546461  0.5803737261000492  0.09713521283918661  1.0000
  C   C3        1.0  0.13744754490657962  0.919626273614847  0.5971352129179704  1.0000
  C   C4        1.0  0.8625524550782543  0.4196262742073269  0.9028647876017275  1.0000
  C   C5        1.0  0.7845920243060844  0.025036502285902526  0.45705715808095443  1.0000
  C   C6        1.0  0.21540797609651952  0.5250365016934225  0.04294284228117594  1.0000
  C   C7        1.0  0.21540797588837962  0.9749634980214735  0.5429428414001592  1.0000
  C   C8        1.0  0.7845920240971994  0.47496349861395354  0.9570571581597382  1.0000
  C   C9        1.0  0.7293806061343983  0.8483161170032572  0.41636114821230663  1.0000
  C   C10       1.0  0.2706193934921383  0.348316116103401  0.08363885179222885  1.0000
  C   C11       1.0  0.2706193940593208  0.15168388330411905  0.5836388522286076  1.0000
  C   C12       1.0  0.7293806059262583  0.6516838827116391  0.9163611473312899  1.0000
  C   C13       1.0  0.7509524662317593  0.7199307241321438  0.3219659833657517  1.0000
  C   C14       1.0  0.24904753417158967  0.21993072323228768  0.17803401603657798  1.0000
  C   C15       1.0  0.24904753396270468  0.28006927617523236  0.6780340161153618  1.0000
  C   C16       1.0  0.7509524660228742  0.7800692770750884  0.8219659834445356  1.0000
  C   C17       1.0  0.8306263070011142  0.7729595927159573  0.2704698018755644  1.0000
  C   C18       1.0  0.16937369340148983  0.2729595933084372  0.22953019848656597  1.0000
  C   C19       1.0  0.16937369319260484  0.22704040759141889  0.7295301985653498  1.0000
  C   C20       1.0  0.8306263067922292  0.7270404069989389  0.7704698019543482  1.0000
  C   C21       1.0  0.8840080690505608  0.9485058560696539  0.3105141557581187  1.0000
  C   C22       1.0  0.11599193057597579  0.44850585516979774  0.18948584424641682  1.0000
  C   C23       1.0  0.11599193114315824  0.05149414423772225  0.6894858446827956  1.0000
  C   C24       1.0  0.8840080688416756  0.5514941436452423  0.8105141558369026  1.0000
  C   C25       1.0  0.9205175874008921  0.26232083866686917  0.44436853744411053  1.0000
  C   C26       1.0  0.07948241222638944  0.7623208380743892  0.055631461600624335  1.0000
  C   C27       1.0  0.07948241201750442  0.737679161640507  0.5556314616794081  1.0000
  C   C28       1.0  0.9205175879680747  0.23767916074065085  0.9443685378804892  1.0000
  C   C29       1.0  0.48068562770160217  0.6973003480642824  0.5298337275312014  1.0000
  C   C30       1.0  0.5193143722839768  0.19730034865676244  0.970166272028696  1.0000
  C   C31       1.0  0.5193143724928619  0.3026996522430936  0.4701662719499123  1.0000
  C   C32       1.0  0.4806856279104872  0.8026996516506136  0.029833727452417486  1.0000
  C   C33       1.0  0.45930994461507385  0.6239925608847375  0.38495215849424147  1.0000
  C   C34       1.0  0.5406900550114626  0.12399255998488144  0.11504784151029403  1.0000
  C   C35       1.0  0.5406900555786451  0.3760074394226386  0.6150478419466727  1.0000
  C   C36       1.0  0.45930994440618883  0.8760074403224947  0.8849521585730252  1.0000
  N   N1        1.0  0.6966399531910333  0.54880182319206  0.2787837378016436  1.0000
  N   N2        1.0  0.3033600472115707  0.04880182378453995  0.2212162625604867  1.0000
  N   N3        1.0  0.30336004700268576  0.4511981771153161  0.7212162626392705  1.0000
  N   N4        1.0  0.6966399529828934  0.9511981765228362  0.7787837369206269  1.0000
  O   O1        1.0  0.7636221691202798  0.14362737888691796  0.5504605176299316  1.0000
  O   O2        1.0  0.2363778308645543  0.643627379786774  0.9495394828897664  1.0000
  O   O3        1.0  0.23637783107343927  0.8563726199281221  0.4495394828109825  1.0000
  O   O4        1.0  0.7636221685530972  0.3563726205206021  0.050460517193552906  1.0000
  O   O5        1.0  0.9048659222552371  0.379046859329157  0.53197571118836  1.0000
  O   O6        1.0  0.09513407772959688  0.879046860229013  0.9680242893313381  1.0000
  O   O7        1.0  0.09513407716241444  0.6209531409782191  0.46802428889495934  1.0000
  O   O8        1.0  0.9048659224641221  0.12095314007836303  0.031975711109576005  1.0000
  O   O9        1.0  0.9901170458484388  0.30289889850392077  0.3873165610567823  1.0000
  O   O10       1.0  0.009882953778097682  0.8028988979114408  0.11268343894775314  1.0000
  O   O11       1.0  0.009882953569212684  0.6971011018034553  0.612683439026537  1.0000
  O   O12       1.0  0.9901170464156213  0.19710110090359928  0.8873165614931611  1.0000
  O   O13       1.0  0.47136029677046265  0.5365798164212666  0.6166955742324537  1.0000
  O   O14       1.0  0.5286397032151164  0.03657981552141061  0.8833044253274438  1.0000
  O   O15       1.0  0.5286397034240014  0.4634201838861094  0.3833044252486598  1.0000
  O   O16       1.0  0.4713602962032802  0.9634201832936294  0.11669557379607495  1.0000
