data_image0
_chemical_formula_structural       H54C48O16
_chemical_formula_sum              "H54 C48 O16"
_cell_length_a       5.432444024125272
_cell_length_b       12.462369914313722
_cell_length_c       17.152722538995572
_cell_angle_alpha    70.23927035625215
_cell_angle_beta     85.2372360460143
_cell_angle_gamma    86.03196801730705

_space_group_name_H-M_alt    "P 1"
_space_group_IT_number       1

loop_
  _space_group_symop_operation_xyz
  'x, y, z'

loop_
  _atom_site_type_symbol
  _atom_site_label
  _atom_site_symmetry_multiplicity
  _atom_site_fract_x
  _atom_site_fract_y
  _atom_site_fract_z
  _atom_site_occupancy
  H   H1        1.0  0.7699559883806132  0.7636960913639592  0.17261440256080823  1.0000
  H   H2        1.0  0.2300485511552599  0.2363071685369655  0.8273836715224613  1.0000
  H   H3        1.0  0.34476752684302814  0.03233974455151058  0.23688662657399506  1.0000
  H   H4        1.0  0.6552300814460309  0.9676594389540419  0.7631142284809579  1.0000
  H   H5        1.0  0.9860813734016621  0.8668246006790347  0.3705295570832895  1.0000
  H   H6        1.0  0.013918976596030313  0.1331759824228517  0.6294704689687781  1.0000
  H   H7        1.0  0.7581818783912383  0.9352507504506784  0.4680566700344448  1.0000
  H   H8        1.0  0.24181696890203258  0.0647495042457226  0.5319444897226411  1.0000
  H   H9        1.0  0.6996805405529424  0.08662270578038911  0.44498353642992694  1.0000
  H   H10       1.0  0.3003174246027931  0.9133775004783612  0.5550169619341865  1.0000
  H   H11       1.0  0.9589150771715738  0.03547570088542525  0.3938852044120583  1.0000
  H   H12       1.0  0.04108357421948769  0.9645249065766377  0.6061153903018752  1.0000
  H   H13       1.0  0.4166894861767542  0.7601432754629867  0.11942379679454711  1.0000
  H   H14       1.0  0.5833143744088949  0.2398587805783495  0.8805750041769377  1.0000
  H   H15       1.0  0.606860947759998  0.8676455352663465  0.0497697353575646  1.0000
  H   H16       1.0  0.3931388451951233  0.1323575880803936  0.9502290475623587  1.0000
  H   H17       1.0  0.2179142359592795  0.9763347529669656  0.9886401541330364  1.0000
  H   H18       1.0  0.7820839566910692  0.02366660094253472  0.011359489344068538  1.0000
  H   H19       1.0  0.04303995090996472  0.8622696924310906  0.05437561884830033  1.0000
  H   H20       1.0  0.9569602631929035  0.13773119789114627  0.9456249076131087  1.0000
  H   H21       1.0  0.28692740923784427  0.7289637045852532  0.9906777462142844  1.0000
  H   H22       1.0  0.7130710699586972  0.27103713859194556  0.009322831215420248  1.0000
  H   H23       1.0  0.45372447998882914  0.8454707436021113  0.923817773990666  1.0000
  H   H24       1.0  0.5462742221232171  0.15452974351860702  0.07618235999847403  1.0000
  H   H25       1.0  0.8924910303444495  0.8232863073742648  0.928025509485905  1.0000
  H   H26       1.0  0.10750742769285226  0.1767143465890456  0.07197527327852991  1.0000
  H   H27       1.0  0.06017723396109455  0.9383961537419866  0.8591659422467449  1.0000
  H   H28       1.0  0.9398206569828208  0.06160454104575057  0.1408346900655172  1.0000
  H   H29       1.0  0.31792379693509765  0.8003169170861029  0.804271617630838  1.0000
  H   H30       1.0  0.6820740950139134  0.19968375799616636  0.19572892787823928  1.0000
  H   H31       1.0  0.14911259117085135  0.6860332171574879  0.8761554806353354  1.0000
  H   H32       1.0  0.8508852352061714  0.31396754510238745  0.12384481274286764  1.0000
  H   H33       1.0  0.2994362619961639  0.6280607909185966  0.7818338700162453  1.0000
  H   H34       1.0  0.700562932780559  0.3719396030407641  0.2181670386562775  1.0000
  H   H35       1.0  0.6583172090474978  0.8205860602867588  0.6643701232795834  1.0000
  H   H36       1.0  0.341683917090874  0.17941428688590758  0.33562971293773924  1.0000
  H   H37       1.0  0.02047907364250961  0.5555213324767243  0.5791606678413588  1.0000
  H   H38       1.0  0.979522869677029  0.44447897073729115  0.42083975739628426  1.0000
  H   H39       1.0  0.8366094233688659  0.6728914818241969  0.4619829199921905  1.0000
  H   H40       1.0  0.163389525814024  0.32710915881228764  0.5380170621123365  1.0000
  H   H41       1.0  0.5105804627151332  0.704356249913666  0.4562264841650908  1.0000
  H   H42       1.0  0.4894179054096628  0.29564451809994696  0.5437738848847921  1.0000
  H   H43       1.0  0.622467730834503  0.5731226828033257  0.5288240870898467  1.0000
  H   H44       1.0  0.3775313550285965  0.4268779173866604  0.4711763819838557  1.0000
  H   H45       1.0  0.3735024296216595  0.6448872715532569  0.3501661091326934  1.0000
  H   H46       1.0  0.626498528950397  0.35511371447482737  0.6498334882007994  1.0000
  H   H47       1.0  0.6474723713516636  0.41608557730381784  0.7568065090946873  1.0000
  H   H48       1.0  0.352536192151439  0.5839183630442139  0.2431911109070147  1.0000
  H   H49       1.0  0.9988471822546485  0.4315791734698038  0.8792962349285353  1.0000
  H   H50       1.0  0.0011519426999204857  0.568421378400176  0.12070441746692465  1.0000
  H   H51       1.0  0.6513587968177494  0.6244165604929125  0.028083397710527418  1.0000
  H   H52       1.0  0.34863941245901275  0.3755840270635274  0.971917310726011  1.0000
  H   H53       1.0  0.649825689412352  0.5565837076366384  0.9073992168726783  1.0000
  H   H54       1.0  0.3501736985832536  0.4434168807215121  0.09260112493988056  1.0000
  C   C1        1.0  0.09493805878219334  0.7203717678721646  0.2843994907821075  1.0000
  C   C2        1.0  0.9050630115301306  0.27963027655409134  0.7155993966137266  1.0000
  C   C3        1.0  0.8920393544291839  0.8085233108657456  0.27252315050805315  1.0000
  C   C4        1.0  0.10796215284386147  0.19147886541504064  0.7274756808047977  1.0000
  C   C5        1.0  0.735301784333106  0.8197699425359034  0.20924015359471082  1.0000
  C   C6        1.0  0.2647015499999947  0.18023308202887336  0.7907582102467595  1.0000
  C   C7        1.0  0.5393808176812355  0.9013512182260482  0.19624665740737227  1.0000
  C   C8        1.0  0.46062022133380104  0.09865055318119466  0.803752870907245  1.0000
  C   C9        1.0  0.49929145509271283  0.9695789907745985  0.2467178866592831  1.0000
  C   C10       1.0  0.5007074675003885  0.030421120004261483  0.7532828868668459  1.0000
  C   C11       1.0  0.6591971086744233  0.9573895239338068  0.3094930120159774  1.0000
  C   C12       1.0  0.3408018789842989  0.0426103019047979  0.6905073261846089  1.0000
  C   C13       1.0  0.858864622480002  0.8771988323595719  0.32269284660790015  1.0000
  C   C14       1.0  0.14113424541367126  0.12280122426202689  0.6773074678539488  1.0000
  C   C15       1.0  0.7673206719159367  0.019660564504492013  0.4194606801050164  1.0000
  C   C16       1.0  0.23267891868758855  0.980338961641379  0.5805401063156731  1.0000
  C   C17       1.0  0.4217514811211279  0.8514476010062265  0.08213861179209854  1.0000
  C   C18       1.0  0.5782496756376909  0.14855439091365505  0.9178605637690836  1.0000
  C   C19       1.0  0.22389149591469928  0.8836289440175779  0.02047857641868546  1.0000
  C   C20       1.0  0.776108240674204  0.11637227419921183  0.979521325905269  1.0000
  C   C21       1.0  0.2731018634456154  0.8217742959158906  0.9576139342580168  1.0000
  C   C22       1.0  0.7268965905180251  0.17822648314472853  0.042386161331770124  1.0000
  C   C23       1.0  0.07419200948159516  0.8468932420980297  0.8953183957550939  1.0000
  C   C24       1.0  0.9258058465390321  0.1531074028656888  0.10468197479594912  1.0000
  C   C25       1.0  0.1377941701368627  0.7773687153314396  0.8388525777985727  1.0000
  C   C26       1.0  0.8622032451815207  0.222632114101009  0.16114781630024422  1.0000
  C   C27       1.0  0.36837778183967723  0.4932370321380853  0.691558847090817  1.0000
  C   C28       1.0  0.6316258397595285  0.5067650313700334  0.3084404118735663  1.0000
  C   C29       1.0  0.1722422549480795  0.5840755193991396  0.6822397566561755  1.0000
  C   C30       1.0  0.8277595573519239  0.4159259067551707  0.31776051605716066  1.0000
  C   C31       1.0  0.16195187802940753  0.6470284976712753  0.7362652960653988  1.0000
  C   C32       1.0  0.8380484546690017  0.3529717024356666  0.26373538429465  1.0000
  C   C33       1.0  0.9751388179712708  0.7320328957035338  0.7298543550191225  1.0000
  C   C34       1.0  0.024860644565556818  0.267967304027831  0.2701460263717934  1.0000
  C   C35       1.0  0.8036253816485402  0.754214722822293  0.6693997880588954  1.0000
  C   C36       1.0  0.19637557412285817  0.24578556972160442  0.3306006145613068  1.0000
  C   C37       1.0  0.8206047819766946  0.6923464741950011  0.6143223617957724  1.0000
  C   C38       1.0  0.17939612904369334  0.307653662954422  0.3856777686275258  1.0000
  C   C39       1.0  0.004420670535219508  0.6057898481650553  0.6203310201677813  1.0000
  C   C40       1.0  0.995580686422234  0.39421020503765153  0.3796688879957028  1.0000
  C   C41       1.0  0.6573366899132828  0.6638952524116652  0.4977341032320896  1.0000
  C   C42       1.0  0.3426623215386339  0.3361055215836808  0.502266142566811  1.0000
  C   C43       1.0  0.9984982970895336  0.46107117917234375  0.9323671775174192  1.0000
  C   C44       1.0  0.0015002262782722858  0.538929350103005  0.06763355976312625  1.0000
  C   C45       1.0  0.8046794462128821  0.5701311709526222  0.015652204662534502  1.0000
  C   C46       1.0  0.19531889765168117  0.42986939835864046  0.9843485831423219  1.0000
  C   C47       1.0  0.802890704612976  0.5315149696169276  0.948072304329641  1.0000
  C   C48       1.0  0.1971078203974557  0.4684856646520668  0.051928408736237434  1.0000
  O   O1        1.0  0.1350076516265132  0.6653573953678582  0.23520651780621554  1.0000
  O   O2        1.0  0.8649981722322859  0.33464902980594957  0.7647894555378889  1.0000
  O   O3        1.0  0.22695988700658457  0.7039538208759983  0.34899685926254964  1.0000
  O   O4        1.0  0.7730342709736286  0.29604420867072545  0.6510038912808437  1.0000
  O   O5        1.0  0.37788275445990543  0.9191830870976442  0.13568510247798654  1.0000
  O   O6        1.0  0.6221179390679867  0.08081793035241672  0.8643147331231387  1.0000
  O   O7        1.0  0.6066674669003749  0.028151948069802517  0.3551985610065394  1.0000
  O   O8        1.0  0.39333110605144694  0.9718465638019219  0.6448030037026746  1.0000
  O   O9        1.0  0.4988207808595483  0.4731778865370406  0.757053539382638  1.0000
  O   O10       1.0  0.5011878208390755  0.5268266744191746  0.2429443421294808  1.0000
  O   O11       1.0  0.4078156955263196  0.4402165789456219  0.6409289115722221  1.0000
  O   O12       1.0  0.5921837728492284  0.5597858118933351  0.3590702668338328  1.0000
  O   O13       1.0  0.9494422105064467  0.7972206635411287  0.7804560912177007  1.0000
  O   O14       1.0  0.0505544035741  0.20277943050932137  0.219544201855332  1.0000
  O   O15       1.0  0.6473374297661622  0.7234123624492874  0.5564418639581828  1.0000
  O   O16       1.0  0.35266366079548483  0.2765880590408007  0.4435585399369912  1.0000
