data_image0
_chemical_formula_structural       H44C52N8F16I4
_chemical_formula_sum              "H44 C52 N8 F16 I4"
_cell_length_a       12.27099053695126
_cell_length_b       9.731137808475319
_cell_length_c       11.495561172312724
_cell_angle_alpha    90.0
_cell_angle_beta     94.09478916510108
_cell_angle_gamma    90.0

_space_group_name_H-M_alt    "P 1"
_space_group_IT_number       1

loop_
  _space_group_symop_operation_xyz
  'x, y, z'

loop_
  _atom_site_type_symbol
  _atom_site_label
  _atom_site_symmetry_multiplicity
  _atom_site_fract_x
  _atom_site_fract_y
  _atom_site_fract_z
  _atom_site_occupancy
  H   H1        1.0  0.931470626144554  0.8018394172985769  0.7788861150727553  1.0000
  H   H2        1.0  0.06852937435783259  0.30183941773405104  0.7211138843231812  1.0000
  H   H3        1.0  0.06852937443415853  0.19816058285810378  0.2211138849221851  1.0000
  H   H4        1.0  0.9314706254057908  0.6981605824226297  0.27888611566933397  1.0000
  H   H5        1.0  0.36599848142864955  0.2449571609112256  0.3455194197992023  1.0000
  H   H6        1.0  0.6340015184112998  0.7449571604757514  0.15448058079231675  1.0000
  H   H7        1.0  0.6340015183349739  0.755042839245455  0.6544805801933129  1.0000
  H   H8        1.0  0.36599848135232355  0.2550428396809293  0.8455194192001985  1.0000
  H   H9        1.0  0.4984969512626457  0.2546909424960988  0.5163479704501213  1.0000
  H   H10       1.0  0.5015030492958149  0.7546909420606245  0.9836520298179391  1.0000
  H   H11       1.0  0.5015030493160668  0.7453090576605819  0.48365202954481906  1.0000
  H   H12       1.0  0.4984969504678084  0.2453090580960561  0.016347970174576107  1.0000
  H   H13       1.0  0.696932506273578  0.9629780005621187  0.33799011085112113  1.0000
  H   H14       1.0  0.3030674935102973  0.46297799996996386  0.16200988886827405  1.0000
  H   H15       1.0  0.30306749349004536  0.037021999594561976  0.662009889141394  1.0000
  H   H16       1.0  0.6969325062533259  0.5370220001867169  0.837990111124241  1.0000
  H   H17       1.0  0.5555380539704515  0.9692624609411237  0.17428387300823497  1.0000
  H   H18       1.0  0.4444619458134237  0.46926246137659783  0.32571612671116024  1.0000
  H   H19       1.0  0.4444619457931718  0.03073753921555705  0.8257161269842802  1.0000
  H   H20       1.0  0.5555380539501996  0.5307375387800828  0.674283873281355  1.0000
  H   H21       1.0  0.6591679650853229  0.307533704578056  0.605780874570491  1.0000
  H   H22       1.0  0.3408320346580484  0.8075337051702108  0.8942191256951443  1.0000
  H   H23       1.0  0.34083203467830037  0.6924662945509956  0.3942191254220242  1.0000
  H   H24       1.0  0.659167965105575  0.1924662949864698  0.105780874297371  1.0000
  H   H25       1.0  0.7474967399812883  0.1988961823471754  0.6937998159438291  1.0000
  H   H26       1.0  0.2525032605771724  0.6988961819117012  0.8062001843242315  1.0000
  H   H27       1.0  0.25250326059742423  0.8011038178095052  0.3062001840511114  1.0000
  H   H28       1.0  0.7474967400015402  0.30110381824497945  0.19379981567070903  1.0000
  H   H29       1.0  0.6042726582124764  0.16830717252545155  0.6837205649772228  1.0000
  H   H30       1.0  0.39572734153089495  0.6683071731176065  0.8162794352884125  1.0000
  H   H31       1.0  0.3957273415511469  0.8316928266036001  0.31627943501529243  1.0000
  H   H32       1.0  0.6042726582327284  0.33169282703907427  0.18372056470410278  1.0000
  H   H33       1.0  0.7541488504787959  0.9114329931979089  0.5299563198556847  1.0000
  H   H34       1.0  0.2458511500796648  0.4114329926057541  0.9700436804123757  1.0000
  H   H35       1.0  0.2458511500999167  0.0885670069587717  0.4700436801392557  1.0000
  H   H36       1.0  0.7541488504990479  0.5885670065232975  0.029956319582564762  1.0000
  H   H37       1.0  0.8289119303184543  0.030549461517345236  0.6220772546646467  1.0000
  H   H38       1.0  0.17108807018393232  0.5305494610818711  0.8779227447312897  1.0000
  H   H39       1.0  0.1710880702602583  0.9694505386393354  0.37792274533029374  1.0000
  H   H40       1.0  0.8289119303947804  0.4694505390748096  0.12207725526365058  1.0000
  H   H41       1.0  0.8346876330730832  0.04100179730806984  0.468153781683765  1.0000
  H   H42       1.0  0.16531236671079205  0.5410017979002246  0.031846218035630265  1.0000
  H   H43       1.0  0.16531236669054009  0.9589982018209817  0.5318462183087502  1.0000
  H   H44       1.0  0.8346876330528313  0.458998202256456  0.968153781956885  1.0000
  C   C1        1.0  0.16694031329198952  0.9659323632035521  0.9831989412469488  1.0000
  C   C2        1.0  0.8330596872103971  0.4659323636390263  0.5168010581489877  1.0000
  C   C3        1.0  0.8330596872867231  0.034067635925499475  0.01680105874799158  1.0000
  C   C4        1.0  0.1669403133683155  0.5340676365176543  0.48319894184595275  1.0000
  C   C5        1.0  0.14244499818058146  0.013760753638014787  0.870287915435311  1.0000
  C   C6        1.0  0.857555001506716  0.5137607542301696  0.6297120839582004  1.0000
  C   C7        1.0  0.8575550015830418  0.9862392465186658  0.12971208455720423  1.0000
  C   C8        1.0  0.14244499825690743  0.486239245926511  0.3702879160343148  1.0000
  C   C9        1.0  0.05952892418864231  0.9547013908187181  0.7975484450461404  1.0000
  C   C10       1.0  0.9404710755547292  0.45470139125419234  0.7024515552194948  1.0000
  C   C11       1.0  0.9404710755749811  0.04529860831033344  0.20245155494637468  1.0000
  C   C12       1.0  0.059528924208894225  0.5452986089024883  0.2975484447730205  1.0000
  C   C13       1.0  0.9969359644086601  0.846868863867339  0.8353774359150884  1.0000
  C   C14       1.0  0.0030640361498005413  0.34686886327518407  0.664622564352972  1.0000
  C   C15       1.0  0.0030640361700524513  0.1531311362893417  0.16462256407985196  1.0000
  C   C16       1.0  0.996935964484986  0.6531311368814966  0.33537743651409235  1.0000
  C   C17       1.0  0.019638040504692752  0.8004203828267834  0.9487958740630752  1.0000
  C   C18       1.0  0.9803619591826047  0.3004203832622575  0.551204125330436  1.0000
  C   C19       1.0  0.9803619592589307  0.19957961732989732  0.05120412592943985  1.0000
  C   C20       1.0  0.019638040581018715  0.6995796168944232  0.44879587466207926  1.0000
  C   C21       1.0  0.10358311956111044  0.8581668253353438  0.020873954262174994  1.0000
  C   C22       1.0  0.8964168802227649  0.3581668257708181  0.47912604545722015  1.0000
  C   C23       1.0  0.896416880202513  0.14183317482133678  0.9791260457303401  1.0000
  C   C24       1.0  0.10358311954085853  0.6418331743858626  0.520873954535295  1.0000
  C   C25       1.0  0.4416645947691088  0.18590043688667468  0.34630615341180915  1.0000
  C   C26       1.0  0.5583354050147665  0.6859004364512005  0.15369384630758604  1.0000
  C   C27       1.0  0.5583354049945146  0.814099563270006  0.6536938465807061  1.0000
  C   C28       1.0  0.44166459474885683  0.31409956370548014  0.846306153684929  1.0000
  C   C29       1.0  0.5162309049744825  0.1913885998385431  0.44212415353981416  1.0000
  C   C30       1.0  0.48376909480939284  0.691388599403069  0.057875846179581095  1.0000
  C   C31       1.0  0.4837690947891409  0.8086114003181376  0.557875846452701  1.0000
  C   C32       1.0  0.5162309049542305  0.30861140075361176  0.942124153812934  1.0000
  C   C33       1.0  0.6130893730352966  0.11123623889667222  0.44349492404953283  1.0000
  C   C34       1.0  0.3869106267485787  0.611236238461198  0.05650507566986234  1.0000
  C   C35       1.0  0.3869106267283268  0.8887637612600084  0.5565050759429824  1.0000
  C   C36       1.0  0.6130893730150446  0.38876376169548266  0.9434949243226529  1.0000
  C   C37       1.0  0.625981276049317  0.028740924802895248  0.3435252522987321  1.0000
  C   C38       1.0  0.3740187237345583  0.528740924367421  0.15647474742066309  1.0000
  C   C39       1.0  0.37401872452939555  0.9712590753537854  0.6564747476962084  1.0000
  C   C40       1.0  0.6259812760290651  0.47125907476163054  0.8435252525718521  1.0000
  C   C41       1.0  0.5467868920225727  0.032017299120832836  0.2517899439726294  1.0000
  C   C42       1.0  0.4532131085763917  0.5320172986853586  0.248210055749191  1.0000
  C   C43       1.0  0.45321310855613983  0.9679827010358477  0.748210056022311  1.0000
  C   C44       1.0  0.5467868920023209  0.467982701471322  0.7517899442457494  1.0000
  C   C45       1.0  0.6735803078552361  0.20118433717945075  0.6347753483647817  1.0000
  C   C46       1.0  0.3264196918881352  0.7011843367439765  0.8652246519008536  1.0000
  C   C47       1.0  0.32641969190838716  0.79881566297723  0.3652246516277336  1.0000
  C   C48       1.0  0.6735803078754882  0.298815662385075  0.13477534809166156  1.0000
  C   C49       1.0  0.7811608988168282  0.01904412758789573  0.5385730996164936  1.0000
  C   C50       1.0  0.21883910174163237  0.5190441281800506  0.9614269006515668  1.0000
  C   C51       1.0  0.21883910176188429  0.9809558715411558  0.4614269003784468  1.0000
  C   C52       1.0  0.7811608988370802  0.48095587197663003  0.038573099343373614  1.0000
  N   N1        1.0  0.4554713604702881  0.10924818155119403  0.25063020561455196  1.0000
  N   N2        1.0  0.5445286393135873  0.609248182143349  0.24936979410484322  1.0000
  N   N3        1.0  0.5445286401084245  0.8907518186054867  0.7493697943803884  1.0000
  N   N4        1.0  0.4554713604500361  0.39075181801333175  0.7506302058876719  1.0000
  N   N5        1.0  0.6884049683555483  0.11232055608626235  0.5355554334184727  1.0000
  N   N6        1.0  0.31159503138782313  0.6123205566784172  0.9644445668471624  1.0000
  N   N7        1.0  0.3115950314080751  0.8876794430427893  0.46444456657404254  1.0000
  N   N8        1.0  0.6884049683758001  0.3876794434782635  0.035555433145352665  1.0000
  F   F1        1.0  0.1991820137277276  0.12150521277894191  0.8282387666037138  1.0000
  F   F2        1.0  0.8008179860156439  0.6215052123434677  0.6717612336619214  1.0000
  F   F3        1.0  0.8008179860358957  0.8784947873777388  0.17176123338880148  1.0000
  F   F4        1.0  0.1991820137479795  0.37849478781321294  0.32823876633059373  1.0000
  F   F5        1.0  0.03904620176010198  0.005318398631136934  0.6881538766828974  1.0000
  F   F6        1.0  0.9609537987983586  0.5053183981956627  0.8118461235851631  1.0000
  F   F7        1.0  0.9609537988186106  0.9946816015255437  0.311846123312043  1.0000
  F   F8        1.0  0.039046201780353895  0.4946816019610179  0.1881538764097774  1.0000
  F   F9        1.0  0.9585244749989771  0.6990107204191128  0.9920358591816639  1.0000
  F   F10       1.0  0.041475524744394324  0.19901072085458707  0.5079641410839713  1.0000
  F   F11       1.0  0.04147552476464624  0.3009892797375678  0.007964140810851212  1.0000
  F   F12       1.0  0.958524475019229  0.8009892793020935  0.49203585890854395  1.0000
  F   F13       1.0  0.1213814486868676  0.8072284428197576  0.13092288367460408  1.0000
  F   F14       1.0  0.8786185510970077  0.3072284432552318  0.36907711604479115  1.0000
  F   F15       1.0  0.8786185510767559  0.19277155733692308  0.8690771163179112  1.0000
  F   F16       1.0  0.12138144866661568  0.6927715569014489  0.630922883947724  1.0000
  I   I1        1.0  0.29762239329191426  0.04612817214540411  0.09804315117771735  1.0000
  I   I2        1.0  0.702377606491961  0.546128172737559  0.40195684854167785  1.0000
  I   I3        1.0  0.7023776064717091  0.9538718269836475  0.9019568488147979  1.0000
  I   I4        1.0  0.29762239327166234  0.4538718274191217  0.5980431514508374  1.0000
