data_image0
_chemical_formula_structural       H48C52N8F12I4
_chemical_formula_sum              "H48 C52 N8 F12 I4"
_cell_length_a       6.380210268831584
_cell_length_b       28.02908815653281
_cell_length_c       7.3744844883582
_cell_angle_alpha    90.0
_cell_angle_beta     92.38923452277666
_cell_angle_gamma    90.0

_space_group_name_H-M_alt    "P 1"
_space_group_IT_number       1

loop_
  _space_group_symop_operation_xyz
  'x, y, z'

loop_
  _atom_site_type_symbol
  _atom_site_label
  _atom_site_symmetry_multiplicity
  _atom_site_fract_x
  _atom_site_fract_y
  _atom_site_fract_z
  _atom_site_occupancy
  H   H1        1.0  0.9153063978004051  0.1701614980610194  0.13576052080985349  1.0000
  H   H2        1.0  0.08469360210954725  0.6701614981228692  0.36423947900869685  1.0000
  H   H3        1.0  0.08469360186341762  0.8298385020626802  0.8642394786445354  1.0000
  H   H4        1.0  0.9153063975542756  0.3298385020008304  0.635760520445692  1.0000
  H   H5        1.0  0.0013214109195110906  0.25674200315798545  0.19003685099620382  1.0000
  H   H6        1.0  0.9986785889904414  0.7567420032198352  0.3099631488223465  1.0000
  H   H7        1.0  0.9986785887443117  0.7432579969657142  0.8099631484581851  1.0000
  H   H8        1.0  0.0013214107305781757  0.24325799690386435  0.6900368519892306  1.0000
  H   H9        1.0  0.7486510896525594  0.39058736905247365  0.8742820446437418  1.0000
  H   H10       1.0  0.2513489097651338  0.8905873691143235  0.6257179544464856  1.0000
  H   H11       1.0  0.25134891001126336  0.6094126307144537  0.12571795481064704  1.0000
  H   H12       1.0  0.7486510898986891  0.10941263100937616  0.3742820450079033  1.0000
  H   H13       1.0  0.6351518886960337  0.4739650179060026  0.835753137763155  1.0000
  H   H14       1.0  0.3648481107788563  0.9739650179678524  0.6642468626842607  1.0000
  H   H15       1.0  0.36484811102498604  0.5260349822176971  0.16424686304842204  1.0000
  H   H16       1.0  0.6351518888849664  0.026034982155847205  0.3357531367701283  1.0000
  H   H17       1.0  0.2688042189798613  0.5071917391892256  0.6815845672202206  1.0000
  H   H18       1.0  0.7311957804378317  0.007191739127375705  0.8184154318700068  1.0000
  H   H19       1.0  0.7311957806839614  0.49280826093447405  0.3184154322341682  1.0000
  H   H20       1.0  0.26880421922599096  0.9928082609963239  0.18158456758438213  1.0000
  H   H21       1.0  0.35117109359543375  0.4217798115292806  0.7231629621295895  1.0000
  H   H22       1.0  0.6488289058222594  0.9217798115911303  0.7768370369606379  1.0000
  H   H23       1.0  0.6488289060683889  0.5782201882376469  0.27683703732479925  1.0000
  H   H24       1.0  0.3511710938415635  0.07822018817579701  0.2231629624937511  1.0000
  H   H25       1.0  0.5739938953145629  0.5470125982827048  0.6464083225088304  1.0000
  H   H26       1.0  0.4260061056707974  0.04701259822085491  0.8535916765884963  1.0000
  H   H27       1.0  0.4260061043492599  0.4529874014842227  0.3535916769455584  1.0000
  H   H28       1.0  0.5739938955606925  0.9529874015460724  0.14640832287299196  1.0000
  H   H29       1.0  0.6676164147020709  0.6004677717664981  0.7518762422244227  1.0000
  H   H30       1.0  0.3323835862832894  0.1004677717046483  0.7481237568729042  1.0000
  H   H31       1.0  0.332383586529419  0.3995322280004293  0.24812375723706567  1.0000
  H   H32       1.0  0.6676164133805335  0.8995322280622791  0.25187624258148467  1.0000
  H   H33       1.0  0.6141190168531657  0.5502263335814396  0.8881028100754089  1.0000
  H   H34       1.0  0.3858809841321945  0.05022633351958975  0.611897189021918  1.0000
  H   H35       1.0  0.3858809843783241  0.44977366654226003  0.11189718938607947  1.0000
  H   H36       1.0  0.6141190155316283  0.9497736662473377  0.3881028104324709  1.0000
  H   H37       1.0  0.18515587247602439  0.5808399059962099  0.7816473630554863  1.0000
  H   H38       1.0  0.8148441269988655  0.08083990593436012  0.7183526373919292  1.0000
  H   H39       1.0  0.8148441271877985  0.41916009412748967  0.21835263639890254  1.0000
  H   H40       1.0  0.18515587272215403  0.9191600938325672  0.2816473634196478  1.0000
  H   H41       1.0  0.9789757680400455  0.6167391805063398  0.6893378462048279  1.0000
  H   H42       1.0  0.02102423294531482  0.11673918044448994  0.810662152892499  1.0000
  H   H43       1.0  0.021024231623777343  0.3832608196173599  0.3106621532495609  1.0000
  H   H44       1.0  0.9789757682861752  0.8832608196792097  0.18933784656898942  1.0000
  H   H45       1.0  0.09955765400812285  0.5737656962005628  0.549293065264209  1.0000
  H   H46       1.0  0.900442345466767  0.07376569613871305  0.9507069351832067  1.0000
  H   H47       1.0  0.9004423457128967  0.42623430392313677  0.4507069355473682  1.0000
  H   H48       1.0  0.09955765425425248  0.9262343039849866  0.04929306562837043  1.0000
  C   C1        1.0  0.5056461115798149  0.2694353932537698  0.9994773475707792  1.0000
  C   C2        1.0  0.4943538878378783  0.7694353933156196  0.5005226515194483  1.0000
  C   C3        1.0  0.49435388808400793  0.7305646065131576  0.0005226518836097732  1.0000
  C   C4        1.0  0.5056461118259445  0.2305646064513078  0.49947734793494053  1.0000
  C   C5        1.0  0.4610673272106857  0.2212033365257699  0.9722223642989792  1.0000
  C   C6        1.0  0.5389326737746746  0.7212033365876197  0.5277776347983477  1.0000
  C   C7        1.0  0.5389326740208042  0.7787966632411575  0.027777635162509095  1.0000
  C   C8        1.0  0.46106732588914817  0.27879666353607985  0.4722223646560412  1.0000
  C   C9        1.0  0.6086769285243685  0.18620274661998135  0.020156831313496715  1.0000
  C   C10       1.0  0.39132307138558403  0.686202746325059  0.47984316850505365  1.0000
  C   C11       1.0  0.3913230711394544  0.8137972535037182  0.9798431681408922  1.0000
  C   C12       1.0  0.6086769282782388  0.3137972534418685  0.5201568309493353  1.0000
  C   C13       1.0  0.8032578424880688  0.19816000645406145  0.09747059553986794  1.0000
  C   C14       1.0  0.19674215742188364  0.698160006159139  0.4025294042786824  1.0000
  C   C15       1.0  0.19674215723295074  0.8018399936696382  0.9025294052717092  1.0000
  C   C16       1.0  0.8032578422419391  0.30183999360778835  0.5974705951757066  1.0000
  C   C17       1.0  0.851103056500552  0.24619118650820895  0.1274930963771475  1.0000
  C   C18       1.0  0.1488969434094005  0.7461911865700588  0.3725069034414028  1.0000
  C   C19       1.0  0.14889694322046756  0.7538088136154907  0.8725069044344297  1.0000
  C   C20       1.0  0.8511030578220894  0.2538088135536409  0.6274930960200855  1.0000
  C   C21       1.0  0.7029092487276954  0.28046457080937104  0.0778588363741704  1.0000
  C   C22       1.0  0.29709075118225703  0.7804645708712209  0.4221411634443799  1.0000
  C   C23       1.0  0.29709075093612736  0.7195354293143286  0.9221411630802184  1.0000
  C   C24       1.0  0.702909250049233  0.21953542925247876  0.5778588360171084  1.0000
  C   C25       1.0  0.8605466591937534  0.4175554497042098  0.8323519473960718  1.0000
  C   C26       1.0  0.13945334022393982  0.9175554497660596  0.6676480516941559  1.0000
  C   C27       1.0  0.13945334047006944  0.5824445504194898  0.1676480520583173  1.0000
  C   C28       1.0  0.860546659439883  0.08244455035763999  0.332351947760233  1.0000
  C   C29       1.0  0.7967857788871906  0.4645633089196694  0.8106037833101846  1.0000
  C   C30       1.0  0.20321422058769942  0.9645633089815192  0.6893962171372311  1.0000
  C   C31       1.0  0.20321422077663234  0.535436690847258  0.18939621614420427  1.0000
  C   C32       1.0  0.79678577913332  0.035436691142180406  0.31060378367434605  1.0000
  C   C33       1.0  0.9434239787073554  0.4997943137417025  0.7597266187365487  1.0000
  C   C34       1.0  0.05657602071033772  0.9997943138035524  0.7402733803536787  1.0000
  C   C35       1.0  0.05657602095646736  0.500205686381997  0.24027338071784024  1.0000
  C   C36       1.0  0.9434239789534851  0.00020568632014724637  0.2597266191007101  1.0000
  C   C37       1.0  0.14848623306776046  0.4830041064623297  0.7270149038047521  1.0000
  C   C38       1.0  0.8515137679175998  0.9830041065241796  0.7729850952925749  1.0000
  C   C39       1.0  0.8515137681637294  0.5169958933045977  0.27298509565673623  1.0000
  C   C40       1.0  0.14848623174622297  0.016995893242747858  0.22701490416181405  1.0000
  C   C41       1.0  0.19441502912589975  0.43510622935329174  0.7501531979262849  1.0000
  C   C42       1.0  0.8055849702917933  0.9351062294151417  0.7498468011639425  1.0000
  C   C43       1.0  0.8055849705379231  0.5648937704136356  0.24984680152810398  1.0000
  C   C44       1.0  0.1944150293720294  0.06489377035178581  0.25015319829044635  1.0000
  C   C45       1.0  0.6757918724290348  0.5615970705893688  0.7578292320030664  1.0000
  C   C46       1.0  0.3242081286135222  0.061597070527519025  0.7421707684514487  1.0000
  C   C47       1.0  0.3242081288596519  0.43840292953433074  0.24217076881561025  1.0000
  C   C48       1.0  0.6757918726751644  0.9384029295961807  0.2578292323672278  1.0000
  C   C49       1.0  0.04734045694481529  0.5810148827907675  0.6870548419444468  1.0000
  C   C50       1.0  0.9526595425300746  0.08101488272891764  0.812945158502969  1.0000
  C   C51       1.0  0.9526595427762042  0.41898511733293214  0.3129451588671303  1.0000
  C   C52       1.0  0.04734045719094493  0.918985117394782  0.18705484230860822  1.0000
  N   N1        1.0  0.05656471515031426  0.4020822231911698  0.8040254513422739  1.0000
  N   N2        1.0  0.9434352858922427  0.9020822232530196  0.6959745491122412  1.0000
  N   N3        1.0  0.9434352845135086  0.5979177769325298  0.19597454811211498  1.0000
  N   N4        1.0  0.05656471539644389  0.09791777687068003  0.30402545170643536  1.0000
  N   N5        1.0  0.8918238797426776  0.5465622468503104  0.742468063755123  1.0000
  N   N6        1.0  0.10817611973221232  0.04656224678846064  0.7575319366922928  1.0000
  N   N7        1.0  0.10817611992114523  0.4534377532733892  0.25753193569926597  1.0000
  N   N8        1.0  0.8918238799888073  0.9534377529784668  0.24246806411928437  1.0000
  F   F1        1.0  0.27164124612080226  0.20725865884602523  0.8990610978939384  1.0000
  F   F2        1.0  0.7283587533540876  0.707258658907875  0.6009389025534774  1.0000
  F   F3        1.0  0.7283587536002173  0.7927413412776745  0.10093890291763873  1.0000
  F   F4        1.0  0.2716412463669319  0.29274134121582457  0.39906109825809993  1.0000
  F   F5        1.0  0.5570310606933421  0.13945548239638197  0.9912215185135794  1.0000
  F   F6        1.0  0.4429689387815478  0.6394554824582318  0.5087784819338362  1.0000
  F   F7        1.0  0.4429689389704807  0.8605445177273177  0.008778480940809394  1.0000
  F   F8        1.0  0.5570310609394719  0.36054451766546786  0.4912215188777409  1.0000
  F   F9        1.0  0.7523424176405704  0.3273621453097968  0.10779128825902827  1.0000
  F   F10       1.0  0.24765758226938206  0.8273621450148744  0.39220871155952214  1.0000
  F   F11       1.0  0.24765758202325241  0.6726378548139028  0.8922087111953606  1.0000
  F   F12       1.0  0.7523424174516375  0.17263785475205298  0.6077912892520552  1.0000
  I   I1        1.0  0.28928912621931113  0.3236472160399436  0.9210924271941852  1.0000
  I   I2        1.0  0.7107108732555787  0.8236472161017934  0.5789075732532306  1.0000
  I   I3        1.0  0.7107108735017084  0.676352784083756  0.07890757361739198  1.0000
  I   I4        1.0  0.28928912640824406  0.17635278402190618  0.4210924262011584  1.0000
