data_image0
_chemical_formula_structural       H56C48N40O44S8
_chemical_formula_sum              "H56 C48 N40 O44 S8"
_cell_length_a       19.715537924967048
_cell_length_b       5.987500274260908
_cell_length_c       20.022599122642497
_cell_angle_alpha    90.0
_cell_angle_beta     114.29993082564944
_cell_angle_gamma    90.0

_space_group_name_H-M_alt    "P 1"
_space_group_IT_number       1

loop_
  _space_group_symop_operation_xyz
  'x, y, z'

loop_
  _atom_site_type_symbol
  _atom_site_label
  _atom_site_symmetry_multiplicity
  _atom_site_fract_x
  _atom_site_fract_y
  _atom_site_fract_z
  _atom_site_occupancy
  H   H1        1.0  0.8132688771811536  0.2703981454430663  0.6887715937474513  1.0000
  H   H2        1.0  0.18673112275904102  0.7703981459223224  0.811228406641698  1.0000
  H   H3        1.0  0.18673112290155827  0.7296018555154459  0.3112284062769422  1.0000
  H   H4        1.0  0.8132688773236708  0.22960185503618988  0.18877159338269545  1.0000
  H   H5        1.0  0.8882533262183521  0.08618232590623082  0.698760343375679  1.0000
  H   H6        1.0  0.11174667372102132  0.586182326385487  0.8012396565137025  1.0000
  H   H7        1.0  0.11174667386435981  0.9138176733821354  0.3012396566487145  1.0000
  H   H8        1.0  0.8882533263616905  0.4138176729028792  0.1987603435106911  1.0000
  H   H9        1.0  0.827666471816963  0.1824136133563385  0.6086691489593035  1.0000
  H   H10       1.0  0.17233352812323155  0.6824136138355946  0.8913308514298459  1.0000
  H   H11       1.0  0.17233352826657006  0.8175863859320276  0.39133085156485803  1.0000
  H   H12       1.0  0.8276664714029611  0.31758638545277157  0.10866914836978164  1.0000
  H   H13       1.0  0.9397482237042537  0.27815328162228453  0.585153342513396  1.0000
  H   H14       1.0  0.06025177623511961  0.7781532804313945  0.9148466573759856  1.0000
  H   H15       1.0  0.060251776378458105  0.7218467193362277  0.4148466575109976  1.0000
  H   H16       1.0  0.9397482232910732  0.22184671885697158  0.08515334242364204  1.0000
  H   H17       1.0  0.003741736475722523  0.2030438570877674  0.6764674148002852  1.0000
  H   H18       1.0  0.9962582634636508  0.7030438558968776  0.8235325850890961  1.0000
  H   H19       1.0  0.9962582636069892  0.7969561438707448  0.3235325852241083  1.0000
  H   H20       1.0  0.00374173661906101  0.2969561433914887  0.17646741493529722  1.0000
  H   H21       1.0  0.012064948851493887  0.47091529700982765  0.6399041934659466  1.0000
  H   H22       1.0  0.9879350510887006  0.9709152958189378  0.8600958069232026  1.0000
  H   H23       1.0  0.987935051231218  0.5290847039486846  0.3600958065584469  1.0000
  H   H24       1.0  0.012064948994011155  0.029084703469428447  0.1399041931011908  1.0000
  H   H25       1.0  0.5897198848217611  0.08559351090188659  0.4733034171574391  1.0000
  H   H26       1.0  0.4102801148477702  0.5855935113811427  0.02669658277720052  1.0000
  H   H27       1.0  0.4102801152609508  0.9144064883864796  0.5266965828669544  1.0000
  H   H28       1.0  0.5897198852349418  0.4144064895773695  0.973303417247193  1.0000
  H   H29       1.0  0.6011861287778484  0.990693459422382  0.5628767442360809  1.0000
  H   H30       1.0  0.3988138711623461  0.49069346061327196  0.9371232561530685  1.0000
  H   H31       1.0  0.39881387130568463  0.009306539865984122  0.43712325628808035  1.0000
  H   H32       1.0  0.6011861289203658  0.5093065403452403  0.06287674387132512  1.0000
  H   H33       1.0  0.5508284166571868  0.8208140116714495  0.4830663397271619  1.0000
  H   H34       1.0  0.4491715835688635  0.32081401119219344  0.016933660432243654  1.0000
  H   H35       1.0  0.44917158342552505  0.17918598761691662  0.5169336602972316  1.0000
  H   H36       1.0  0.5508284165138483  0.6791859880961728  0.9830663395921498  1.0000
  H   H37       1.0  0.6232911409875155  0.49244215030352717  0.5470644898033407  1.0000
  H   H38       1.0  0.3767088589518579  0.9924421507827832  0.9529355100860408  1.0000
  H   H39       1.0  0.37670885909519636  0.507557848984839  0.4529355102210529  1.0000
  H   H40       1.0  0.6232911411308539  0.007557848505582899  0.0470644899383527  1.0000
  H   H41       1.0  0.6859321519521332  0.6395391089101333  0.6285150278102132  1.0000
  H   H42       1.0  0.3140678479872401  0.1395391101010233  0.8714849720791684  1.0000
  H   H43       1.0  0.31406784813057864  0.3604608903782328  0.37148497221418036  1.0000
  H   H44       1.0  0.6859321515389527  0.8604608908574889  0.12851502772045933  1.0000
  H   H45       1.0  0.7234742386711006  0.46385839545415875  0.5796058782241249  1.0000
  H   H46       1.0  0.276525761269094  0.9638583959334148  0.9203941221650246  1.0000
  H   H47       1.0  0.27652576141161134  0.5361416038342074  0.42039412180026864  1.0000
  H   H48       1.0  0.7234742382570987  0.03614160335495133  0.07960587763460317  1.0000
  H   H49       1.0  0.6402944012931128  0.8325519334719917  0.3754793336093116  1.0000
  H   H50       1.0  0.35970559837641847  0.33255193299273567  0.12452066632532799  1.0000
  H   H51       1.0  0.35970559878959907  0.1674480674865204  0.6245206664150819  1.0000
  H   H52       1.0  0.6402944011497742  0.6674480662956305  0.8754793334742997  1.0000
  H   H53       1.0  0.8681160212876289  0.7004307620708515  0.5535017552875519  1.0000
  H   H54       1.0  0.13188397865174448  0.20043076159159537  0.9464982446018297  1.0000
  H   H55       1.0  0.13188397879508298  0.29956923888766074  0.4464982447368417  1.0000
  H   H56       1.0  0.8681160214309673  0.7995692393669168  0.05350175542256386  1.0000
  C   C1        1.0  0.8541369265247385  0.22569722556994973  0.6670164628523392  1.0000
  C   C2        1.0  0.14586307341545612  0.7256972260492058  0.8329835375368102  1.0000
  C   C3        1.0  0.1458630735579734  0.7743027737184165  0.3329835371720543  1.0000
  C   C4        1.0  0.8541369266672557  0.2743027749093064  0.16701646248758337  1.0000
  C   C5        1.0  0.9731996256229721  0.34105610963868754  0.6404709317301992  1.0000
  C   C6        1.0  0.026800374317222455  0.8410561101179437  0.8595290686589502  1.0000
  C   C7        1.0  0.02680037445973972  0.6589438913198247  0.3595290682941944  1.0000
  C   C8        1.0  0.9731996257654894  0.15894389084056856  0.14047093136544322  1.0000
  C   C9        1.0  0.5965585122063267  0.9397725899385581  0.5085746340925106  1.0000
  C   C10       1.0  0.4034414877330466  0.4397725894593019  0.9914253657968709  1.0000
  C   C11       1.0  0.4034414878763852  0.06022740934980811  0.49142536593188296  1.0000
  C   C12       1.0  0.5965585117931461  0.5602274098290643  0.00857463400275677  1.0000
  C   C13       1.0  0.6774491280208035  0.5746485582290379  0.5743626466641106  1.0000
  C   C14       1.0  0.3225508719185699  0.07464855774978184  0.925637353225271  1.0000
  C   C15       1.0  0.32255087206190836  0.4253514427294742  0.4256373533602829  1.0000
  C   C16       1.0  0.6774491276076229  0.9253514415385844  0.07436264657435673  1.0000
  C   C17       1.0  0.8921957922403067  0.978074594029624  0.43117257191434843  1.0000
  C   C18       1.0  0.10780420798574365  0.478074595220514  0.0688274282450571  1.0000
  C   C19       1.0  0.10780420784240517  0.02192540525874212  0.568827428110045  1.0000
  C   C20       1.0  0.8921957920969681  0.5219254057379982  0.9311725717793363  1.0000
  C   C21       1.0  0.7838194516705133  0.4750979005760699  0.41855193254189754  1.0000
  C   C22       1.0  0.21618054799901795  0.975097901055326  0.08144806739274217  1.0000
  C   C23       1.0  0.21618054841219858  0.5249020987122963  0.581448067482496  1.0000
  C   C24       1.0  0.7838194520836939  0.024902099903186217  0.9185519326316515  1.0000
  C   C25       1.0  0.647967920863246  0.10257409467522934  0.3046216142486492  1.0000
  C   C26       1.0  0.35203207936280445  0.6025740951544855  0.19537838591075643  1.0000
  C   C27       1.0  0.35203207921946594  0.8974259062832829  0.6953783857757444  1.0000
  C   C28       1.0  0.6479679207199074  0.39742590580402676  0.8046216141136371  1.0000
  C   C29       1.0  0.5540837399076847  0.9605674415956412  0.2089042500702886  1.0000
  C   C30       1.0  0.4459162597618466  0.46056744111638503  0.29109574986435105  1.0000
  C   C31       1.0  0.4459162601750273  0.03943255936287106  0.7910957499541049  1.0000
  C   C32       1.0  0.5540837397643461  0.5394325581719811  0.7089042499352766  1.0000
  C   C33       1.0  0.7044354569433826  0.23817368595879226  0.3581871405886346  1.0000
  C   C34       1.0  0.29556454272614857  0.7381736864380484  0.14181285934600504  1.0000
  C   C35       1.0  0.2955645431393292  0.7618263149997199  0.6418128594357589  1.0000
  C   C36       1.0  0.7044354573565632  0.26182631452046384  0.8581871406783884  1.0000
  C   C37       1.0  0.8302515052938214  0.6717871725686915  0.4338664808343883  1.0000
  C   C38       1.0  0.16974849493140773  0.1717871737595814  0.06613351882524938  1.0000
  C   C39       1.0  0.16974849478889048  0.32821282671967467  0.5661335191900052  1.0000
  C   C40       1.0  0.8302515051513041  0.8282128271989307  0.9338664811991442  1.0000
  C   C41       1.0  0.845685792771796  0.810462043878404  0.3859150285961044  1.0000
  C   C42       1.0  0.15431420745425442  0.3104620433991479  0.11408497156330119  1.0000
  C   C43       1.0  0.1543142073109159  0.18953795540996216  0.6140849714282892  1.0000
  C   C44       1.0  0.8456857926284574  0.6895379558892183  0.8859150284610923  1.0000
  C   C45       1.0  0.6056244497954212  0.13772791519442454  0.22996421524198138  1.0000
  C   C46       1.0  0.3943755498741101  0.6377279156736806  0.27003578469265827  1.0000
  C   C47       1.0  0.3943755502872907  0.8622720857640876  0.7700357847824122  1.0000
  C   C48       1.0  0.6056244502086018  0.36227208528483157  0.7299642153317353  1.0000
  N   N1        1.0  0.7870345323664619  0.3286402388086563  0.46929721201756086  1.0000
  N   N2        1.0  0.2129654678595884  0.8286402392879124  0.03070278814184468  1.0000
  N   N3        1.0  0.2129654677162499  0.6713597604797098  0.5307027880068327  1.0000
  N   N4        1.0  0.7870345322231235  0.17135976000045375  0.9692972118825489  1.0000
  N   N5        1.0  0.8672008479453733  0.7615706941346021  0.501863327915048  1.0000
  N   N6        1.0  0.13279915199482126  0.26157069365534596  0.9981366724741016  1.0000
  N   N7        1.0  0.13279915158164066  0.23842930682391011  0.4981366723843476  1.0000
  N   N8        1.0  0.8672008480878906  0.7384293073031662  0.0018633275502919972  1.0000
  N   N9        1.0  0.9266300673505847  0.16071917092626542  0.4102638080809815  1.0000
  N   N10       1.0  0.07336993287546562  0.6607191714055215  0.08973619207842409  1.0000
  N   N11       1.0  0.07336993273212712  0.8392808283621006  0.5897361919434122  1.0000
  N   N12       1.0  0.9266300672072464  0.33928082788284464  0.9102638079459695  1.0000
  N   N13       1.0  0.8184766309272703  0.7864806270228157  0.3069899208285245  1.0000
  N   N14       1.0  0.18152336874226097  0.2864806282137057  0.1930100791061152  1.0000
  N   N15       1.0  0.18152336859892246  0.21351937226555043  0.6930100789711032  1.0000
  N   N16       1.0  0.8184766313404509  0.7135193727448066  0.8069899209182784  1.0000
  N   N17       1.0  0.6208722473840741  0.912435164885963  0.32199199697160974  1.0000
  N   N18       1.0  0.3791277528419763  0.41243516440670686  0.1780080031877958  1.0000
  N   N19       1.0  0.37912775269863785  0.08756483440240317  0.6780080030527839  1.0000
  N   N20       1.0  0.6208722472407355  0.5875648348816593  0.8219919968365977  1.0000
  N   N21       1.0  0.6107008510971076  0.3243953755375415  0.18677243988142384  1.0000
  N   N22       1.0  0.38929914912894287  0.8243953760167976  0.3132275602779817  1.0000
  N   N23       1.0  0.3892991489856043  0.6756046237508245  0.8132275601429697  1.0000
  N   N24       1.0  0.6107008509537691  0.17560462327156853  0.6867724397464119  1.0000
  N   N25       1.0  0.7333874015609837  0.42534929325149334  0.34865507658331957  1.0000
  N   N26       1.0  0.26661259866506665  0.9253492920606035  0.15134492357608595  1.0000
  N   N27       1.0  0.2666125985217282  0.5746507077070189  0.651344923441074  1.0000
  N   N28       1.0  0.7333874014176451  0.07465070722776271  0.8486550764483075  1.0000
  N   N29       1.0  0.9050697346382637  0.9449286531679347  0.5015283968951769  1.0000
  N   N30       1.0  0.09493026530110969  0.4449286543588248  0.9984716029942047  1.0000
  N   N31       1.0  0.09493026488792909  0.05507134612043134  0.49847160290445064  1.0000
  N   N32       1.0  0.9050697347816021  0.5550713465996875  0.0015283970301889366  1.0000
  N   N33       1.0  0.5646166394496656  0.8233803614495122  0.2651577004015236  1.0000
  N   N34       1.0  0.43538336077556355  0.32338036264040215  0.23484229925811406  1.0000
  N   N35       1.0  0.4353833606330463  0.17661963783885393  0.73484229962287  1.0000
  N   N36       1.0  0.5646166393071483  0.67661963831811  0.7651577007662795  1.0000
  N   N37       1.0  0.49875144443071096  0.9121224400568637  0.1366383388944881  1.0000
  N   N38       1.0  0.5012485557953393  0.4121224395776076  0.3633616612649174  1.0000
  N   N39       1.0  0.5012485556520009  0.08787756090164849  0.8633616611299054  1.0000
  N   N40       1.0  0.4987514442873725  0.5878775613809046  0.6366383387594762  1.0000
  O   O1        1.0  0.8675720156310869  0.6433293283607372  0.626085499444185  1.0000
  O   O2        1.0  0.13242798430828634  0.14332932955162722  0.8739145004451965  1.0000
  O   O3        1.0  0.13242798445162485  0.3566706709276289  0.3739145005802084  1.0000
  O   O4        1.0  0.8675720157744254  0.856670671406885  0.12608549957919712  1.0000
  O   O5        1.0  0.6674517133297145  0.7027525490208681  0.4450698702154268  1.0000
  O   O6        1.0  0.3325482868963358  0.2027525502117581  0.05493012994397875  1.0000
  O   O7        1.0  0.3325482867529973  0.297247450267498  0.5549301298089667  1.0000
  O   O8        1.0  0.6674517131863761  0.7972474507467542  0.9450698700804148  1.0000
  O   O9        1.0  0.951212126384438  0.31881410648213004  0.4534413973887268  1.0000
  O   O10       1.0  0.04878787384161227  0.81881410529124  0.04655860277067869  1.0000
  O   O11       1.0  0.04878787369827378  0.6811858944763821  0.5465586026356667  1.0000
  O   O12       1.0  0.9512121262410996  0.18118589399712606  0.9534413972537149  1.0000
  O   O13       1.0  0.9290358168561988  0.14574397328235916  0.3492888925442481  1.0000
  O   O14       1.0  0.07096418336985132  0.6457439737616153  0.1507111076151574  1.0000
  O   O15       1.0  0.07096418322651282  0.8542560260060069  0.6507111074801454  1.0000
  O   O16       1.0  0.9290358167136816  0.3542560255267509  0.8492888929090041  1.0000
  O   O17       1.0  0.7333262785320179  0.16932612168024452  0.4293732714231688  1.0000
  O   O18       1.0  0.2666737211375132  0.6693261221595007  0.07062672851147081  1.0000
  O   O19       1.0  0.2666737215506938  0.8306738792782677  0.5706267286012247  1.0000
  O   O20       1.0  0.7333262783886796  0.33067387879901156  0.9293732712881569  1.0000
  O   O21       1.0  0.5106120193606278  0.9865397109696405  0.08439571613939129  1.0000
  O   O22       1.0  0.4893879808654227  0.48653971216053055  0.4156042840200143  1.0000
  O   O23       1.0  0.4893879807220841  0.013460288318725528  0.9156042838850024  1.0000
  O   O24       1.0  0.5106120192172893  0.5134602887979817  0.5843957160043792  1.0000
  O   O25       1.0  0.4436922971840365  0.8017744284099569  0.13092742766250057  1.0000
  O   O26       1.0  0.5563077024854947  0.30177442793070086  0.369072572272139  1.0000
  O   O27       1.0  0.5563077023421562  0.19822557254855525  0.8690725721371272  1.0000
  O   O28       1.0  0.4436922975972171  0.6982255713576652  0.6309274277522544  1.0000
  O   O29       1.0  0.5524294704122679  0.42871669685507635  0.1517941332606345  1.0000
  O   O30       1.0  0.4475705298137825  0.9287166973343324  0.3482058668987711  1.0000
  O   O31       1.0  0.4475705296704439  0.5712833024332898  0.8482058667637591  1.0000
  O   O32       1.0  0.5524294702689294  0.07128330362417978  0.6517941331256224  1.0000
  O   O33       1.0  0.8376566015548664  0.6184295282486775  0.28365128076367935  1.0000
  O   O34       1.0  0.162343398671184  0.11842952943956737  0.21634871939572622  1.0000
  O   O35       1.0  0.16234339852784552  0.3815704710396887  0.7163487192607142  1.0000
  O   O36       1.0  0.8376566014115279  0.8815704715189449  0.7836512806286674  1.0000
  O   O37       1.0  0.777920760103616  0.9378652063098516  0.2690777700042957  1.0000
  O   O38       1.0  0.22207923956591527  0.4378652058305956  0.23092222993034395  1.0000
  O   O39       1.0  0.22207923997909587  0.06213479464866051  0.7309222300200978  1.0000
  O   O40       1.0  0.7779207605167967  0.5621347934577706  0.7690777700940495  1.0000
  O   O41       1.0  0.6723469750259831  0.36797022949146563  0.18736154192046672  1.0000
  O   O42       1.0  0.3276530252000673  0.8679702283005757  0.3126384582389388  1.0000
  O   O43       1.0  0.3276530250567288  0.6320297714670465  0.8126384581039269  1.0000
  O   O44       1.0  0.6723469748826446  0.13202977098779042  0.6873615417854548  1.0000
  S   S1        1.0  0.9142046907774612  0.4623827612837552  0.6791269327463456  1.0000
  S   S2        1.0  0.08579530916191211  0.9623827600928653  0.820873067143036  1.0000
  S   S3        1.0  0.08579530930525059  0.537617239674757  0.320873067278048  1.0000
  S   S4        1.0  0.9142046909207996  0.03761723919550093  0.17912693288135753  1.0000
  S   S5        1.0  0.6819463216994749  0.8062715421914379  0.5197582317810849  1.0000
  S   S6        1.0  0.31805367823989844  0.3062715433823279  0.9802417681082966  1.0000
  S   S7        1.0  0.3180536783832369  0.19372845709692818  0.4802417682433085  1.0000
  S   S8        1.0  0.6819463218428135  0.6937284575761843  0.01975823191609705  1.0000
