data_image0
_chemical_formula_structural       H32C40N8O12
_chemical_formula_sum              "H32 C40 N8 O12"
_cell_length_a       5.259978892017777
_cell_length_b       7.965474079521101
_cell_length_c       20.77809105662846
_cell_angle_alpha    90.0
_cell_angle_beta     90.43519308981958
_cell_angle_gamma    90.0

_space_group_name_H-M_alt    "P 1"
_space_group_IT_number       1

loop_
  _space_group_symop_operation_xyz
  'x, y, z'

loop_
  _atom_site_type_symbol
  _atom_site_label
  _atom_site_symmetry_multiplicity
  _atom_site_fract_x
  _atom_site_fract_y
  _atom_site_fract_z
  _atom_site_occupancy
  H   H1        1.0  0.8816452796568511  0.942694093915306  0.04941399776908431  1.0000
  H   H2        1.0  0.6183547199284607  0.44269409388524505  0.45058600187875386  1.0000
  H   H3        1.0  0.11835471942323642  0.0573059061448159  0.9505860020748607  1.0000
  H   H4        1.0  0.381645279151627  0.5573059061748769  0.5494139979651912  1.0000
  H   H5        1.0  0.4598374424776123  0.22093118155069105  0.13076529337083054  1.0000
  H   H6        1.0  0.04016255706513636  0.7209311815807521  0.36923470679178433  1.0000
  H   H7        1.0  0.5401625566024754  0.7790688185094309  0.8692347064731145  1.0000
  H   H8        1.0  0.9598374439215567  0.2790688184793699  0.6307652935357315  1.0000
  H   H9        1.0  0.33879941606378455  0.17002216019783012  0.26768418378970266  1.0000
  H   H10       1.0  0.16120058538015966  0.670022158972473  0.23231581637519835  1.0000
  H   H11       1.0  0.6612005849229085  0.8299778398622918  0.7323158165378133  1.0000
  H   H12       1.0  0.8387994156011234  0.3299778398322308  0.7676841834710328  1.0000
  H   H13       1.0  0.014934357194330906  0.02201218511912371  0.3358615203819322  1.0000
  H   H14       1.0  0.48506564424961324  0.5220121851491847  0.16413847978296886  1.0000
  H   H15       1.0  0.985065643792362  0.9779878149409983  0.6641384799455837  1.0000
  H   H16       1.0  0.5149343567316699  0.4779878149109372  0.8358615200632624  1.0000
  H   H17       1.0  0.6742694275777171  0.8524642089361045  0.2863000141460077  1.0000
  H   H18       1.0  0.8257305720075948  0.3524642089060435  0.2136999855018305  1.0000
  H   H19       1.0  0.3257305715023706  0.1475357911240174  0.7136999856979374  1.0000
  H   H20       1.0  0.17426942707249285  0.6475357911540784  0.7863000143421147  1.0000
  H   H21       1.0  0.6351840179733419  0.8267849639899835  0.16678263526779583  1.0000
  H   H22       1.0  0.8648159835185754  0.32678496395992257  0.33321736486361314  1.0000
  H   H23       1.0  0.36481598300794127  0.1732150360701384  0.8332173645784354  1.0000
  H   H24       1.0  0.1351840174681176  0.6732150361001993  0.6667826354639027  1.0000
  H   H25       1.0  0.5092888460821482  0.2457526470436636  0.99190903574286  1.0000
  H   H26       1.0  0.9907111525406883  0.7457526470737245  0.5080909642636999  1.0000
  H   H27       1.0  0.4907111530033492  0.7542473530164583  0.008090964582369697  1.0000
  H   H28       1.0  0.009288846539399423  0.2542473529863974  0.4919090355802452  1.0000
  H   H29       1.0  0.06637254497229168  0.5450790695763632  0.12007244426348898  1.0000
  H   H30       1.0  0.4336274564716525  0.0450790695463023  0.37992755590141203  1.0000
  H   H31       1.0  0.9336274560089914  0.45492093048375865  0.8799275555827422  1.0000
  H   H32       1.0  0.5663725445150405  0.9549209305138197  0.6200724444261039  1.0000
  C   C1        1.0  0.1998793502927985  0.09465934010613619  0.07166953151416315  1.0000
  C   C2        1.0  0.300120651145736  0.5946593401361971  0.42833046816945325  1.0000
  C   C3        1.0  0.8001206506884848  0.9053406599539857  0.9283304683320682  1.0000
  C   C4        1.0  0.6998793498355471  0.40534065992392476  0.571669531676778  1.0000
  C   C5        1.0  0.1642387453271413  0.07904166327258365  0.17982513701869507  1.0000
  C   C6        1.0  0.3357612542156074  0.5790416633026446  0.32017486314391974  1.0000
  C   C7        1.0  0.8357612537529465  0.9209583367875382  0.8201748628252501  1.0000
  C   C8        1.0  0.6642387467710855  0.4209583367574773  0.6798251371835962  1.0000
  C   C9        1.0  0.18753726456656447  0.09467059367360815  0.24627015884982298  1.0000
  C   C10       1.0  0.3124627349761842  0.5946705937036691  0.25372984131279186  1.0000
  C   C11       1.0  0.8124627364201285  0.9053294063865138  0.7537298414776928  1.0000
  C   C12       1.0  0.6875372641039035  0.4053294063564528  0.7462701585311532  1.0000
  C   C13       1.0  0.006301571965294305  0.011528308181441085  0.2836353315388526  1.0000
  C   C14       1.0  0.49369842947864984  0.5115283082115021  0.21636466862604842  1.0000
  C   C15       1.0  0.9936984290159888  0.9884716918786809  0.7163646683073785  1.0000
  C   C16       1.0  0.506301571508043  0.4884716918486199  0.7836353317014674  1.0000
  C   C17       1.0  0.8107885228847419  0.9160147603466533  0.25557591027163173  1.0000
  C   C18       1.0  0.68921147670057  0.4160147603165924  0.24442408937620644  1.0000
  C   C19       1.0  0.18921147619534576  0.08398523971346857  0.7444240895723133  1.0000
  C   C20       1.0  0.31078852237951765  0.5839852397435296  0.7555759104677385  1.0000
  C   C21       1.0  0.7873108665358194  0.9002196464910365  0.18872314452879135  1.0000
  C   C22       1.0  0.7126891349560978  0.40021964646097563  0.31127685560261764  1.0000
  C   C23       1.0  0.2126891344508735  0.09978035356908534  0.8112768557987245  1.0000
  C   C24       1.0  0.2873108660251854  0.5997803535991463  0.6887231442436137  1.0000
  C   C25       1.0  0.9662117113127578  0.9832826347569877  0.1514617952088957  1.0000
  C   C26       1.0  0.5337882882725541  0.4832826347269269  0.3485382044389425  1.0000
  C   C27       1.0  0.03378828776732976  0.01671736530313409  0.8485382046350494  1.0000
  C   C28       1.0  0.4662117127087292  0.5167173653331951  0.6514617954072888  1.0000
  C   C29       1.0  0.041514605209460556  0.5276812701966267  0.06849021596060809  1.0000
  C   C30       1.0  0.45848539432787844  0.027681270166565724  0.4315097837207222  1.0000
  C   C31       1.0  0.958485393870627  0.4723187298634952  0.931509783883337  1.0000
  C   C32       1.0  0.5415146066534047  0.9723187298935563  0.5684902161255091  1.0000
  C   C33       1.0  0.8422375240916088  0.4196531589493254  0.046619726777851374  1.0000
  C   C34       1.0  0.6577624754991129  0.9196531589793864  0.45338027335127146  1.0000
  C   C35       1.0  0.15776247499388865  0.5803468411107965  0.9533802735473783  1.0000
  C   C36       1.0  0.3422375235809747  0.08034684108073553  0.5466197264926737  1.0000
  C   C37       1.0  0.8028119630344488  0.39538188795278184  0.9747884614603852  1.0000
  C   C38       1.0  0.697188037489583  0.8953818879828429  0.5252115385484609  1.0000
  C   C39       1.0  0.1971880379468343  0.60461811210734  0.025211538385846107  1.0000
  C   C40       1.0  0.30281196159050466  0.10461811207727909  0.47478846129548413  1.0000
  N   N1        1.0  0.9950092729502332  0.9955671452610861  0.08536053955761513  1.0000
  N   N2        1.0  0.5049907285416839  0.4955671452310252  0.4146394605737938  1.0000
  N   N3        1.0  0.004990728031049894  0.0044328547990357525  0.9146394602886161  1.0000
  N   N4        1.0  0.495009272445009  0.5044328548290967  0.585360539753722  1.0000
  N   N5        1.0  0.3042105534952993  0.1445609060433011  0.12920487162010144  1.0000
  N   N6        1.0  0.19578944604203966  0.644560906073362  0.3707951280612288  1.0000
  N   N7        1.0  0.6957894455847884  0.8554390940168208  0.8707951282238436  1.0000
  N   N8        1.0  0.8042105549392434  0.3554390939867599  0.6292048717850025  1.0000
  O   O1        1.0  0.2746887001833589  0.13421843562941796  0.016010424989283147  1.0000
  O   O2        1.0  0.22531130126058535  0.634218435659479  0.4839895751756179  1.0000
  O   O3        1.0  0.7253113007979243  0.865781564430704  0.9839895748569482  1.0000
  O   O4        1.0  0.7746886997261077  0.365781564400643  0.516010425151898  1.0000
  O   O5        1.0  0.6985704545544605  0.34158877084232336  0.08355147485617513  1.0000
  O   O6        1.0  0.8014295469374566  0.8415887708723844  0.4164485252752339  1.0000
  O   O7        1.0  0.30142954642682257  0.6584112292177986  0.9164485249900561  1.0000
  O   O8        1.0  0.1985704540438266  0.15841122918773756  0.5835514745709973  1.0000
  O   O9        1.0  0.6141665415472027  0.2978013582516883  0.9556948333151032  1.0000
  O   O10       1.0  0.8858334589768293  0.7978013582817493  0.544305166693743  1.0000
  O   O11       1.0  0.3858334575328849  0.7021986418084336  0.044305166528841936  1.0000
  O   O12       1.0  0.11416654200445404  0.2021986417783727  0.45569483315248827  1.0000
