data_image0
_chemical_formula_structural       H28C40N8O12Cl4
_chemical_formula_sum              "H28 C40 N8 O12 Cl4"
_cell_length_a       8.356700336860019
_cell_length_b       5.106814607911976
_cell_length_c       22.958142007248348
_cell_angle_alpha    90.0
_cell_angle_beta     99.24625204515256
_cell_angle_gamma    90.0

_space_group_name_H-M_alt    "P 1"
_space_group_IT_number       1

loop_
  _space_group_symop_operation_xyz
  'x, y, z'

loop_
  _atom_site_type_symbol
  _atom_site_label
  _atom_site_symmetry_multiplicity
  _atom_site_fract_x
  _atom_site_fract_y
  _atom_site_fract_z
  _atom_site_occupancy
  H   H1        1.0  0.7472128433808587  0.50419820332048  0.5049977456579653  1.0000
  H   H2        1.0  0.7527871568048924  0.0041982040951288714  0.9950022544944838  1.0000
  H   H3        1.0  0.2527871563441164  0.4958017970883901  0.4950022544437185  1.0000
  H   H4        1.0  0.24721284292008278  0.9958017963137413  0.00499774560720011  1.0000
  H   H5        1.0  0.9484806358009226  0.898036637730055  0.5434774631567143  1.0000
  H   H6        1.0  0.5515193629930302  0.39803663850470383  0.9565225365545789  1.0000
  H   H7        1.0  0.05151936392405257  0.10196336267881516  0.45652253694496964  1.0000
  H   H8        1.0  0.44848063653672343  0.6019633619041663  0.04347746310579561  1.0000
  H   H9        1.0  0.22213531975084844  0.5155810915713946  0.6193485746852329  1.0000
  H   H10       1.0  0.2778646805631154  0.015581092346043417  0.8806514252361234  1.0000
  H   H11       1.0  0.7778646799741267  0.4844189068793078  0.3806514254164509  1.0000
  H   H12       1.0  0.7221353201632148  0.9844189080628267  0.11934857442409769  1.0000
  H   H13       1.0  0.15612084626514527  0.4615230238333776  0.7418680144902676  1.0000
  H   H14       1.0  0.3438791540488186  0.9615230250168967  0.7581319854310885  1.0000
  H   H15       1.0  0.8438791532646083  0.5384769746173247  0.2581319851701069  1.0000
  H   H16       1.0  0.6561208468727333  0.03847697539197353  0.24186801467044175  1.0000
  H   H17       1.0  0.0002778878380803299  0.1758576977924004  0.8005200866334345  1.0000
  H   H18       1.0  0.4997221124758836  0.6758576970177516  0.6994799132879217  1.0000
  H   H19       1.0  0.9997221116916731  0.8241423026164698  0.19947991302694  1.0000
  H   H20       1.0  0.5002778872490915  0.3241423014329508  0.3005200868137621  1.0000
  H   H21       1.0  0.8371055628874777  0.8027285665801988  0.7537367673195721  1.0000
  H   H22       1.0  0.6628944372982734  0.30272856735484754  0.746263232832877  1.0000
  H   H23       1.0  0.16289443803407413  0.19727143382867146  0.24626323278195836  1.0000
  H   H24       1.0  0.3371055624267018  0.6972714330540226  0.25373676726880684  1.0000
  H   H25       1.0  0.8278771292049102  0.6995612302951214  0.6471638628001717  1.0000
  H   H26       1.0  0.672122869784264  0.19956123106977025  0.8528361373524308  1.0000
  H   H27       1.0  0.17212287052006484  0.30043877011374875  0.3528361373015121  1.0000
  H   H28       1.0  0.3278771299407111  0.8004387693391  0.14716386274925314  1.0000
  C   C1        1.0  0.4173188983859483  0.8676303567267412  0.5420517193553722  1.0000
  C   C2        1.0  0.08268110092666046  0.36763035554322215  0.9579482810074469  1.0000
  C   C3        1.0  0.5826811013390268  0.1323696436821291  0.4579482807463116  1.0000
  C   C4        1.0  0.9173188987983147  0.6323696429074803  0.04205171909423699  1.0000
  C   C5        1.0  0.5222251882961575  0.08692241917540378  0.560842295527127  1.0000
  C   C6        1.0  0.9777748118895936  0.586922418400755  0.939157704625322  1.0000
  C   C7        1.0  0.4777748114288176  0.9130775812334664  0.43915770457455683  1.0000
  C   C8        1.0  0.022225189031958307  0.41307758004994743  0.060842295476208376  1.0000
  C   C9        1.0  0.6014085786229171  0.21680809369594498  0.5216677105093532  1.0000
  C   C10       1.0  0.8985914213676125  0.716808094879464  0.9783322892017865  1.0000
  C   C11       1.0  0.3985914209068366  0.7831919067129253  0.4783322891510213  1.0000
  C   C12       1.0  0.10140857935871785  0.28319190552940626  0.02166771045843468  1.0000
  C   C13       1.0  0.10030004102515952  0.22696423289074652  0.5651054976640479  1.0000
  C   C14       1.0  0.3996999592888044  0.7269642321160977  0.9348945022573084  1.0000
  C   C15       1.0  0.8996999598963924  0.7730357675181238  0.4348945024374825  1.0000
  C   C16       1.0  0.6003000402409492  0.2730357682927725  0.0651054974030661  1.0000
  C   C17       1.0  0.07805467165835381  0.23962822893630548  0.6617846007179977  1.0000
  C   C18       1.0  0.4219453286556101  0.7396282301198245  0.8382153992033585  1.0000
  C   C19       1.0  0.9219453292631982  0.7603717695143969  0.33821539938353273  1.0000
  C   C20       1.0  0.5780546708741434  0.26037177028904573  0.1617846004570159  1.0000
  C   C21       1.0  0.08618242762271291  0.2965403928417099  0.7214299469546495  1.0000
  C   C22       1.0  0.41381757149467424  0.7965403920670611  0.7785700529668603  1.0000
  C   C23       1.0  0.9138175721022622  0.7034596075671603  0.2785700531470343  1.0000
  C   C24       1.0  0.5861824282303009  0.2034596083418091  0.2214299471348236  1.0000
  C   C25       1.0  0.9982989167173996  0.13384605326009158  0.7538669988641512  1.0000
  C   C26       1.0  0.50170108327313  0.6338460544436106  0.7461330008469885  1.0000
  C   C27       1.0  0.0017010840089308268  0.8661539471487786  0.24613300079606987  1.0000
  C   C28       1.0  0.49829891625662354  0.36615394596525963  0.25386699881338604  1.0000
  C   C29       1.0  0.9066471146445368  0.92247719404213  0.7275145916759793  1.0000
  C   C30       1.0  0.5933528855412141  0.42247719481677887  0.7724854084764697  1.0000
  C   C31       1.0  0.09335288627701509  0.07752280440857232  0.2724854084255512  1.0000
  C   C32       1.0  0.4066471141837608  0.5775228055920913  0.22751459162521404  1.0000
  C   C33       1.0  0.8995435471734804  0.8631573002808287  0.6676998412393359  1.0000
  C   C34       1.0  0.6004564530122706  0.3631573010554776  0.8323001589131132  1.0000
  C   C35       1.0  0.10045645374807141  0.13684270012804145  0.33230015886219455  1.0000
  C   C36       1.0  0.3995435467127045  0.6368426993533927  0.16769984118857068  1.0000
  C   C37       1.0  0.9865697978186961  0.02496792615154942  0.6354632211102912  1.0000
  C   C38       1.0  0.5134302023670549  0.5249679273350684  0.8645367790421578  1.0000
  C   C39       1.0  0.013430201906279013  0.9750320742573209  0.36453677899139264  1.0000
  C   C40       1.0  0.48656979855449695  0.4750320730738018  0.13546322105937258  1.0000
  N   N1        1.0  0.003684516388931176  0.023679937355204732  0.5763807837496044  1.0000
  N   N2        1.0  0.49631548272845605  0.5236799365805559  0.9236192161719052  1.0000
  N   N3        1.0  0.9963154831408225  0.9763200630536655  0.4236192159107702  1.0000
  N   N4        1.0  0.5036845169965192  0.47632006382831427  0.07638078392977847  1.0000
  N   N5        1.0  0.14427312025748  0.3608404497678532  0.6168566666622619  1.0000
  N   N6        1.0  0.35572687885990706  0.8608404489932043  0.8831433332592477  1.0000
  N   N7        1.0  0.855726879467495  0.639159550641017  0.3831433334394218  1.0000
  N   N8        1.0  0.644273120865068  0.13915955141566583  0.11685666684243608  1.0000
  O   O1        1.0  0.34126225964274814  0.7445236770705063  0.5753600859946135  1.0000
  O   O2        1.0  0.15873774067121565  0.24452367588698729  0.9246399139267426  1.0000
  O   O3        1.0  0.658737740082227  0.2554763233383639  0.4246399141070703  1.0000
  O   O4        1.0  0.8412622602503362  0.755476324521883  0.07536008617478764  1.0000
  O   O5        1.0  0.6941022041475248  0.42104182647804117  0.5379240276212908  1.0000
  O   O6        1.0  0.8058977960382262  0.9210418257033924  0.9620759725311583  1.0000
  O   O7        1.0  0.30589779677402706  0.578958173930829  0.4620759724802397  1.0000
  O   O8        1.0  0.19410220368674885  0.07895817470547782  0.037924027570525536  1.0000
  O   O9        1.0  0.14187863953036642  0.2770826608445368  0.5156555450449576  1.0000
  O   O10       1.0  0.3581213595870206  0.777082660069888  0.9843444548765521  1.0000
  O   O11       1.0  0.8581213601946087  0.7229173395643335  0.48434445505672624  1.0000
  O   O12       1.0  0.6418786399427329  0.22291734033898222  0.015655544783822417  1.0000
  Cl  Cl1       1.0  0.5401561936772271  0.1844663674574179  0.6328976208926197  1.0000
  Cl  Cl2       1.0  0.959843806508524  0.6844663666827691  0.8671023792598294  1.0000
  Cl  Cl3       1.0  0.45984380604774794  0.8155336329514523  0.36710237920906413  1.0000
  Cl  Cl4       1.0  0.040156194413027965  0.3155336317679333  0.1328976208417011  1.0000
