data_image0
_chemical_formula_structural       H14C22N4O8Cl2
_chemical_formula_sum              "H14 C22 N4 O8 Cl2"
_cell_length_a       4.711320454730947
_cell_length_b       10.984541256529132
_cell_length_c       11.252494009389995
_cell_angle_alpha    65.85767726654711
_cell_angle_beta     86.02383689951753
_cell_angle_gamma    78.43088522370367

_space_group_name_H-M_alt    "P 1"
_space_group_IT_number       1

loop_
  _space_group_symop_operation_xyz
  'x, y, z'

loop_
  _atom_site_type_symbol
  _atom_site_label
  _atom_site_symmetry_multiplicity
  _atom_site_fract_x
  _atom_site_fract_y
  _atom_site_fract_z
  _atom_site_occupancy
  H   H1        1.0  0.895119216517535  0.685261072371844  0.6903451469111644  1.0000
  H   H2        1.0  0.1048807819834085  0.31473892779166424  0.3096548533468233  1.0000
  H   H3        1.0  0.044567942167975536  0.8720028153856357  0.7540281040084268  1.0000
  H   H4        1.0  0.9554320588502321  0.12799718425988396  0.2459718952722324  1.0000
  H   H5        1.0  0.3686339466871057  0.8944316683050467  0.9034339887264055  1.0000
  H   H6        1.0  0.6313660539361128  0.10556833186059654  0.09656601152705906  1.0000
  H   H7        1.0  0.3790712262865014  0.12348254974186959  0.8994088685703294  1.0000
  H   H8        1.0  0.6209287726495142  0.8765174494919026  0.10059113168881409  1.0000
  H   H9        1.0  0.06908396895135442  0.32966220874363916  0.7403734483049599  1.0000
  H   H10       1.0  0.9309160320668529  0.6703377909018807  0.25962655097569937  1.0000
  H   H11       1.0  0.6921538043481634  0.4244414907029553  0.5743426394952854  1.0000
  H   H12       1.0  0.3078461962750551  0.5755585094626878  0.4256573607581792  1.0000
  H   H13       1.0  0.6761389028731422  0.9833140440655035  0.5812157566835009  1.0000
  H   H14       1.0  0.3238610956278012  0.01668595609800467  0.41878424357448674  1.0000
  C   C1        1.0  0.048379037294096906  0.5556958687494775  0.861658377932369  1.0000
  C   C2        1.0  0.9516209616018357  0.44430413089390697  0.13834162135281322  1.0000
  C   C3        1.0  0.24502315678023018  0.4460261226358646  0.9390519635242934  1.0000
  C   C4        1.0  0.7549768417207132  0.5539738775276437  0.06094803673369413  1.0000
  C   C5        1.0  0.2103499273711768  0.3848659347584653  0.07865884558005094  1.0000
  C   C6        1.0  0.7896500732520415  0.615134065407178  0.9213411546734137  1.0000
  C   C7        1.0  0.48738519894528065  0.3219023445647898  0.49984328083121976  1.0000
  C   C8        1.0  0.5126147999907348  0.6780976546689824  0.5001567194279237  1.0000
  C   C9        1.0  0.4851079683881305  0.18473028714517079  0.50110029522091  1.0000
  C   C10       1.0  0.514892032235088  0.8152697130204724  0.49889970503255465  1.0000
  C   C11       1.0  0.8656698770005616  0.08694191670500614  0.6657979517173848  1.0000
  C   C12       1.0  0.1343301215003818  0.913058083458502  0.3342020485406029  1.0000
  C   C13       1.0  0.047176749047608296  0.9715101775982472  0.7525744019000555  1.0000
  C   C14       1.0  0.9528232515756099  0.028489822567395906  0.24742559835340913  1.0000
  C   C15       1.0  0.22844844076508122  0.9850357307123674  0.836991623688979  1.0000
  C   C16       1.0  0.7715515598581373  0.014964269453275884  0.16300837656448575  1.0000
  C   C17       1.0  0.2351266612771506  0.11330996960345201  0.8337476491360493  1.0000
  C   C18       1.0  0.7648733393460678  0.8866900305621913  0.16625235111741524  1.0000
  C   C19       1.0  0.060921593041133586  0.22898834235444093  0.7458017932320067  1.0000
  C   C20       1.0  0.939078407582085  0.7710116578112023  0.25419820702145796  1.0000
  C   C21       1.0  0.871598460798307  0.21593513775252904  0.6626428198492892  1.0000
  C   C22       1.0  0.12840153978482832  0.7840648628227267  0.3373571794302142  1.0000
  N   N1        1.0  0.6874419213784463  0.3277185575664378  0.5769872974341672  1.0000
  N   N2        1.0  0.3125580792447723  0.6722814425992054  0.4230127028192974  1.0000
  N   N3        1.0  0.6770558906707616  0.07854135068973787  0.5811411271378749  1.0000
  N   N4        1.0  0.3229441099524569  0.9214586494759052  0.41885887311558984  1.0000
  O   O1        1.0  0.0723801852807946  0.6143788405984095  0.7343934762009711  1.0000
  O   O2        1.0  0.9276198153424238  0.38562115956723375  0.2656065240524935  1.0000
  O   O3        1.0  0.3800400386379729  0.2853752029569448  0.15350201203978864  1.0000
  O   O4        1.0  0.6199599598629705  0.7146247972065634  0.8464979882181991  1.0000
  O   O5        1.0  0.30958777232766505  0.4227859663529807  0.4296383322264607  1.0000
  O   O6        1.0  0.6904122261732782  0.5772140338105274  0.570361668031527  1.0000
  O   O7        1.0  0.3084587893550985  0.17217417445873925  0.429945577592618  1.0000
  O   O8        1.0  0.6915412112681198  0.827825825706904  0.5700544226608467  1.0000
  Cl  Cl1       1.0  0.5382586536161434  0.3738121404798401  0.8752450465005657  1.0000
  Cl  Cl2       1.0  0.4617413474421472  0.6261878587560669  0.12475495375405495  1.0000
