data_image0
_chemical_formula_structural       H64C74O2Cl4
_chemical_formula_sum              "H64 C74 O2 Cl4"
_cell_length_a       10.112387526958216
_cell_length_b       12.516582907368818
_cell_length_c       12.809105297097425
_cell_angle_alpha    67.76757925782604
_cell_angle_beta     71.85302073198795
_cell_angle_gamma    73.22338316874442

_space_group_name_H-M_alt    "P 1"
_space_group_IT_number       1

loop_
  _space_group_symop_operation_xyz
  'x, y, z'

loop_
  _atom_site_type_symbol
  _atom_site_label
  _atom_site_symmetry_multiplicity
  _atom_site_fract_x
  _atom_site_fract_y
  _atom_site_fract_z
  _atom_site_occupancy
  H   H1        1.0  0.3199028512817925  0.7266277901980445  0.9144686049059763  1.0000
  H   H2        1.0  0.6800971488282745  0.27337220999073414  0.08553139519838332  1.0000
  H   H3        1.0  0.16632502040522382  0.6970047374558505  0.720796470832709  1.0000
  H   H4        1.0  0.8336749800052777  0.30299526189809484  0.2792035292728313  1.0000
  H   H5        1.0  0.22790898102859244  0.8824897648703568  0.7136909742169365  1.0000
  H   H6        1.0  0.7720910190814748  0.11751023531842165  0.2863090258874231  1.0000
  H   H7        1.0  0.12496340246629523  0.5818489930538417  0.9748281990666472  1.0000
  H   H8        1.0  0.8750365976437721  0.41815100713493686  0.025171801037712296  1.0000
  H   H9        1.0  0.02306073564945635  0.5905410585117689  0.8806097163760898  1.0000
  H   H10       1.0  0.9769392644606107  0.40945894167700975  0.11939028372826976  1.0000
  H   H11       1.0  0.8729133456915328  0.696894470486695  0.02213089383208318  1.0000
  H   H12       1.0  0.12708665441853456  0.30310552970208365  0.9778691062722763  1.0000
  H   H13       1.0  0.2262679529136159  0.526339154489187  0.7151095176475547  1.0000
  H   H14       1.0  0.7737320471964512  0.4736608456995917  0.2848904824568048  1.0000
  H   H15       1.0  0.28163338983470115  0.31702340764874926  0.7366368305491542  1.0000
  H   H16       1.0  0.718366610275366  0.6829765925400294  0.2633631695552054  1.0000
  H   H17       1.0  0.568377954131955  0.25388063199616323  0.950950475516741  1.0000
  H   H18       1.0  0.43162204627854667  0.7461193673577821  0.049049524588799374  1.0000
  H   H19       1.0  0.5131060280852594  0.46530801448541587  0.9301137428456269  1.0000
  H   H20       1.0  0.4868939720248078  0.5346919857033628  0.06988625725873253  1.0000
  H   H21       1.0  0.345778631424402  0.6646432160868577  0.5810517192679426  1.0000
  H   H22       1.0  0.6542213686856652  0.33535678410192077  0.4189482808364169  1.0000
  H   H23       1.0  0.5011976898952293  0.7619634355421855  0.39880387746401597  1.0000
  H   H24       1.0  0.49880231021483773  0.2380365646465932  0.6011961226403436  1.0000
  H   H25       1.0  0.7086557771113661  0.8533756821494162  0.5915509710386325  1.0000
  H   H26       1.0  0.29134422299870116  0.1466243180393624  0.40844902906572694  1.0000
  H   H27       1.0  0.5509116383600027  0.7558550647816006  0.7753091683666612  1.0000
  H   H28       1.0  0.44908836205049874  0.2441449345723448  0.2246908317388792  1.0000
  H   H29       1.0  0.9231393372936051  0.76677219324617  0.16809471341659124  1.0000
  H   H30       1.0  0.07686066336256654  0.23322780638560905  0.8319052858227022  1.0000
  H   H31       1.0  0.06861332344301323  0.8725920017269111  0.2068148548210428  1.0000
  H   H32       1.0  0.9313866766670541  0.12740799846186754  0.7931851452833166  1.0000
  H   H33       1.0  0.2549260868702678  0.9663392185926514  0.04856390032678058  1.0000
  H   H34       1.0  0.7450739122524989  0.03366078159478999  0.9514360997747924  1.0000
  H   H35       1.0  0.29975056215450085  0.9543330665069064  0.8501323902366333  1.0000
  H   H36       1.0  0.7002494379555664  0.045666933681872184  0.1498676098677262  1.0000
  H   H37       1.0  0.6768933210568142  0.8125592400165258  0.9089303783920569  1.0000
  H   H38       1.0  0.3231066793536875  0.18744075933741944  0.09106962171348339  1.0000
  H   H39       1.0  0.6118918075087504  0.9667756177705461  0.7303673078047059  1.0000
  H   H40       1.0  0.3881081926013168  0.03322438241823244  0.26963269229965353  1.0000
  H   H41       1.0  0.7941120555369638  0.06504045461779301  0.5731114486368523  1.0000
  H   H42       1.0  0.20588794487353762  0.9349595447361523  0.42688855146868815  1.0000
  H   H43       1.0  0.04663111623697873  0.011153076394838698  0.5911990784592157  1.0000
  H   H44       1.0  0.9533688828857881  0.9888469237926026  0.40880092164235726  1.0000
  H   H45       1.0  0.8972907534152796  0.22239348051757668  0.5058827207991872  1.0000
  H   H46       1.0  0.10270924570748734  0.7776065196698647  0.4941172793023857  1.0000
  H   H47       1.0  0.09149394971231296  0.2665584618077648  0.3309876783066622  1.0000
  H   H48       1.0  0.9085060503977543  0.7334415383810137  0.6690123217976974  1.0000
  H   H49       1.0  0.9843202685904311  0.629286869807797  0.3156171990194179  1.0000
  H   H50       1.0  0.0156797315196359  0.3707131303809817  0.6843828010849416  1.0000
  H   H51       1.0  0.7858005713637505  0.5864093416542305  0.4863775648980534  1.0000
  H   H52       1.0  0.21419942904675107  0.4135906576997148  0.513622435207487  1.0000
  H   H53       1.0  0.6076056383387138  0.4332586761175066  0.6023604675382671  1.0000
  H   H54       1.0  0.3923943617713533  0.5667413240712719  0.3976395325660924  1.0000
  H   H55       1.0  0.73249447636675  0.38637126172149155  0.6884772653941029  1.0000
  H   H56       1.0  0.26750552428942187  0.6136287379102874  0.31152273384519064  1.0000
  H   H57       1.0  0.6957180352060339  0.2830413126605734  0.6432375105133791  1.0000
  H   H58       1.0  0.3042819649040332  0.7169586875282052  0.35676248959098034  1.0000
  H   H59       1.0  0.1985557520037196  0.4183660668707893  0.15599780942999145  1.0000
  H   H60       1.0  0.8014442476651518  0.5816339327596524  0.8440021898065155  1.0000
  H   H61       1.0  0.27322097448659827  0.4625818429250684  0.23666757208186817  1.0000
  H   H62       1.0  0.7267790248818388  0.5374181575402067  0.763332427153458  1.0000
  H   H63       1.0  0.15707355576040555  0.5684080314747763  0.15146905083095208  1.0000
  H   H64       1.0  0.8429264443496616  0.4315919687140024  0.8485309492734074  1.0000
  C   C1        1.0  0.3380057400575637  0.644041678183428  0.8054366032471686  1.0000
  C   C2        1.0  0.6619942602981738  0.35595832228318425  0.19456339599094402  1.0000
  C   C3        1.0  0.1815587064414617  0.702642394952156  0.7996358458780428  1.0000
  C   C4        1.0  0.8184412926813049  0.29735760523528537  0.20036415422353013  1.0000
  C   C5        1.0  0.1484367678934037  0.8376060929926589  0.7840662535298549  1.0000
  C   C6        1.0  0.8515632322166633  0.16239390719611982  0.2159337465745048  1.0000
  C   C7        1.0  0.0724253434984156  0.6422678521246843  0.9050094667542663  1.0000
  C   C8        1.0  0.9275746566116517  0.3577321480640944  0.09499053335009318  1.0000
  C   C9        1.0  0.9557297883214492  0.7369588298565901  0.9512900944158504  1.0000
  C   C10       1.0  0.04427021110175192  0.2630411694960181  0.048709905686903386  1.0000
  C   C11       1.0  0.36620786475822764  0.512868403551646  0.8205406602564485  1.0000
  C   C12       1.0  0.6337921353518395  0.48713159663713257  0.17945933984791113  1.0000
  C   C13       1.0  0.30236033468647083  0.46894266854429045  0.7668213510446  1.0000
  C   C14       1.0  0.6976396654235965  0.531057331644488  0.23317864905975957  1.0000
  C   C15       1.0  0.33241492327513517  0.34948540506432446  0.778983700351754  1.0000
  C   C16       1.0  0.6675850768349318  0.6505145951244543  0.22101629975260553  1.0000
  C   C17       1.0  0.42731623768302135  0.27287239166552496  0.8462662010166307  1.0000
  C   C18       1.0  0.5726837624270459  0.7271276085232538  0.15373379908772888  1.0000
  C   C19       1.0  0.4927190302369435  0.3145074244088289  0.900251101926299  1.0000
  C   C20       1.0  0.5072809688858233  0.6854925757786126  0.09974889817527384  1.0000
  C   C21       1.0  0.4618295667879399  0.43416115242154957  0.8871330865572186  1.0000
  C   C22       1.0  0.5381704326352612  0.5658388469310586  0.11286691354553514  1.0000
  C   C23       1.0  0.4365204955599178  0.7038546330097485  0.6919954324725329  1.0000
  C   C24       1.0  0.5634795045501495  0.2961453671790301  0.3080045676318266  1.0000
  C   C25       1.0  0.4242319429134944  0.7063382095053032  0.5848924781797166  1.0000
  C   C26       1.0  0.5757680571965728  0.29366179068347525  0.415107521924643  1.0000
  C   C27       1.0  0.5117184671712858  0.7608537121842989  0.48131028748900295  1.0000
  C   C28       1.0  0.48828153293878135  0.23914628800447973  0.5186897126153565  1.0000
  C   C29       1.0  0.6143977842755166  0.8128972153666226  0.48509372975780934  1.0000
  C   C30       1.0  0.3856022161349851  0.18710278398732286  0.5149062703477311  1.0000
  C   C31       1.0  0.6283909737758193  0.8122911917829619  0.5900041510696253  1.0000
  C   C32       1.0  0.37160902633424786  0.18770880840581672  0.40999584903473413  1.0000
  C   C33       1.0  0.539223115549615  0.7577777418866599  0.6928775607358847  1.0000
  C   C34       1.0  0.4607768835731517  0.2422222583007816  0.3071224393656882  1.0000
  C   C35       1.0  0.13768632277218584  0.8522634952486576  0.8986843470159462  1.0000
  C   C36       1.0  0.8623136775835515  0.14773650521795467  0.10131565222216624  1.0000
  C   C37       1.0  0.03179811850408627  0.7990374423883684  0.9887567008549528  1.0000
  C   C38       1.0  0.968201881605981  0.20096255780041022  0.011243299249406584  1.0000
  C   C39       1.0  0.007092085852748171  0.8061036800369826  0.09918414530829682  1.0000
  C   C40       1.0  0.9929079145577533  0.19389631931696266  0.9008158547972435  1.0000
  C   C41       1.0  0.08855064129794593  0.8656616035802286  0.12068898153118508  1.0000
  C   C42       1.0  0.9114493590577915  0.13433839688638363  0.8793110177069277  1.0000
  C   C43       1.0  0.19370084677060248  0.9184130649660693  0.031662977659380816  1.0000
  C   C44       1.0  0.8062991533394647  0.0815869352227093  0.9683370224449787  1.0000
  C   C45       1.0  0.21880085516134176  0.9117971620697162  0.9201127598863176  1.0000
  C   C46       1.0  0.7811991451943955  0.08820283839689619  0.07988723935179494  1.0000
  C   C47       1.0  0.0017787251726053474  0.8819944505582583  0.7597792652470848  1.0000
  C   C48       1.0  0.9982212749374619  0.11800554963052017  0.24022073485727463  1.0000
  C   C49       1.0  0.8977057616501615  0.826389338072888  0.8496235759361572  1.0000
  C   C50       1.0  0.1022942374726053  0.17361066211455337  0.1503764241654157  1.0000
  C   C51       1.0  0.7575668014170531  0.8557793641823768  0.8392629644117562  1.0000
  C   C52       1.0  0.24243319770571353  0.14422063600506466  0.16073703568981682  1.0000
  C   C53       1.0  0.7213415553912457  0.9420909347609425  0.7391718371470813  1.0000
  C   C54       1.0  0.2786584452649262  0.057909064870836274  0.2608281620922122  1.0000
  C   C55       1.0  0.8245623065750419  0.997741879609423  0.6502249185775417  1.0000
  C   C56       1.0  0.1754376935350252  0.002258120579355687  0.34977508152681785  1.0000
  C   C57       1.0  0.9657405740613335  0.9675563076292046  0.6601414216109541  1.0000
  C   C58       1.0  0.034259426048733624  0.03244369255957397  0.3398585784934054  1.0000
  C   C59       1.0  0.8265069724272956  0.401048271906204  0.5089114361421498  1.0000
  C   C60       1.0  0.1734930276827715  0.5989517282825745  0.4910885639622098  1.0000
  C   C61       1.0  0.9152953531117051  0.3123550015605767  0.46363090039264504  1.0000
  C   C62       1.0  0.08470464729879648  0.6876449977933686  0.5363690997128954  1.0000
  C   C63       1.0  0.0257936642067984  0.33701363096609604  0.36561724516346816  1.0000
  C   C64       1.0  0.9742063349159683  0.6629863692213454  0.6343827549381048  1.0000
  C   C65       1.0  0.052970143097041664  0.45129488966221454  0.31016367818144436  1.0000
  C   C66       1.0  0.9470298570130253  0.5487051105265641  0.6898363219229152  1.0000
  C   C67       1.0  0.9642206335955096  0.5399363988082656  0.355854743207683  1.0000
  C   C68       1.0  0.03577936681499204  0.4600636005456797  0.6441452568978574  1.0000
  C   C69       1.0  0.8526794347180116  0.5157064456376365  0.4525184519801782  1.0000
  C   C70       1.0  0.14732056539205557  0.48429355455114226  0.5474815481241813  1.0000
  C   C71       1.0  0.7095004584530067  0.3743185257081416  0.6156381168634647  1.0000
  C   C72       1.0  0.2904995416570605  0.6256814744806369  0.3843618832408948  1.0000
  C   C73       1.0  0.17577533064642892  0.47685749009756556  0.20796353434817366  1.0000
  C   C74       1.0  0.8242246694636383  0.523142510091213  0.7920364657561858  1.0000
  O   O1        1.0  0.3710069163312918  0.6508305797034449  0.9034047388966272  1.0000
  O   O2        1.0  0.6289930840792098  0.34916941965050036  0.09659526120891328  1.0000
  Cl  Cl1       1.0  0.4635041991552228  0.12360559562988972  0.8647561748603465  1.0000
  Cl  Cl2       1.0  0.5364958005136488  0.8763944040005519  0.13524382437616042  1.0000
  Cl  Cl3       1.0  0.72892312788053  0.8767713539536164  0.3573352981372222  1.0000
  Cl  Cl4       1.0  0.27107687222953697  0.12322864623516219  0.6426647019671374  1.0000
