data_image0
_chemical_formula_structural       H34C12N10O20
_chemical_formula_sum              "H34 C12 N10 O20"
_cell_length_a       10.01343494276988
_cell_length_b       10.013434942770028
_cell_length_c       7.173786776127789
_cell_angle_alpha    90.0
_cell_angle_beta     90.0
_cell_angle_gamma    119.9999999999995

_space_group_name_H-M_alt    "P 1"
_space_group_IT_number       1

loop_
  _space_group_symop_operation_xyz
  'x, y, z'

loop_
  _atom_site_type_symbol
  _atom_site_label
  _atom_site_symmetry_multiplicity
  _atom_site_fract_x
  _atom_site_fract_y
  _atom_site_fract_z
  _atom_site_occupancy
  H   H1        1.0  0.33333333334941356  0.6666666666988271  0.48642597123350023  1.0000
  H   H2        1.0  0.6666666665363986  0.33333333334941356  0.9864259701094223  1.0000
  H   H3        1.0  0.33333333334941356  0.6666666666988271  0.12431507066361042  1.0000
  H   H4        1.0  0.6666666665363986  0.33333333334941356  0.6243150709334965  1.0000
  H   H5        1.0  0.4877354659890789  0.9069281588016493  0.6268370778685515  1.0000
  H   H6        1.0  0.09307184167819603  0.5808073070366423  0.6268370778685515  1.0000
  H   H7        1.0  0.41919269337962406  0.5122645342581896  0.6268370778685515  1.0000
  H   H8        1.0  0.9069281590072464  0.48773546579005095  0.1268370775986654  1.0000
  H   H9        1.0  0.5808073070732417  0.09307184124659135  0.1268370775986654  1.0000
  H   H10       1.0  0.5122645345273659  0.4191926930115983  0.1268370775986654  1.0000
  H   H11       1.0  0.5749651651142357  0.7919654839508081  0.6690070223400947  1.0000
  H   H12       1.0  0.20803451659421268  0.7829996819617469  0.6690070223400947  1.0000
  H   H13       1.0  0.21700031833979241  0.42503483418392635  0.6690070223400947  1.0000
  H   H14       1.0  0.7919654840416782  0.5749651658643143  0.16900702346417254  1.0000
  H   H15       1.0  0.7829996820478979  0.20803451609743254  0.16900702346417254  1.0000
  H   H16       1.0  0.425034834518278  0.2170003180864938  0.16900702346417254  1.0000
  H   H17       1.0  0.5642858799721323  0.849341154664418  0.9857468991874637  1.0000
  H   H18       1.0  0.15065884558617057  0.7149447256187549  0.9857468991874637  1.0000
  H   H19       1.0  0.2850552744899377  0.4357141198133084  0.9857468991874637  1.0000
  H   H20       1.0  0.8493411545624416  0.5642858802349323  0.4857468989175776  1.0000
  H   H21       1.0  0.7149447251935265  0.15065884538382265  0.4857468989175776  1.0000
  H   H22       1.0  0.43571411985322783  0.2850552744294857  0.4857468989175776  1.0000
  H   H23       1.0  0.4226439863965827  0.9045675370378602  0.9418841778912161  1.0000
  H   H24       1.0  0.09543246349546318  0.5180764501821544  0.9418841778912161  1.0000
  H   H25       1.0  0.4819235501561948  0.5773560128764667  0.9418841778912161  1.0000
  H   H26       1.0  0.9045675371655403  0.42264398717177404  0.44188417762133  1.0000
  H   H27       1.0  0.5180764502431929  0.09543246301038037  0.44188417762133  1.0000
  H   H28       1.0  0.5773560131991209  0.4819235498660862  0.44188417762133  1.0000
  H   H29       1.0  0.09636263186944062  0.9955666049915789  0.4509352815956033  1.0000
  H   H30       1.0  0.004433394599975073  0.10079602679535285  0.4509352815956033  1.0000
  H   H31       1.0  0.899203973578825  0.9036373683095494  0.4509352815956033  1.0000
  H   H32       1.0  0.9955666051550875  0.09636263173869117  0.9509352818654895  1.0000
  H   H33       1.0  0.10079602676367384  0.004433395056661686  0.9509352818654895  1.0000
  H   H34       1.0  0.9036373676904345  0.8992039732528877  0.9509352818654895  1.0000
  C   C1        1.0  0.47616799963486384  0.8065491011330341  0.7008616839200069  1.0000
  C   C2        1.0  0.19345089884982877  0.6696188988921987  0.7008616839200069  1.0000
  C   C3        1.0  0.3303811015635481  0.5238320000712485  0.7008616839200069  1.0000
  C   C4        1.0  0.8065491013781119  0.47616799997699216  0.2008616836501208  1.0000
  C   C5        1.0  0.6696188983876419  0.19345089891520656  0.2008616836501208  1.0000
  C   C6        1.0  0.5238319998434422  0.33038110115604186  0.2008616836501208  1.0000
  C   C7        1.0  0.45819452096535407  0.8199734657055789  0.9107188412319239  1.0000
  C   C8        1.0  0.1800265345286591  0.6382210559588747  0.9107188412319239  1.0000
  C   C9        1.0  0.36177894455422754  0.5418054784320276  0.9107188412319239  1.0000
  C   C10       1.0  0.8199734654314363  0.45819452046306164  0.41071884096203787  1.0000
  C   C11       1.0  0.6382210551455872  0.18002653434266172  0.41071884096203787  1.0000
  C   C12       1.0  0.5418054784555966  0.36177894408936595  0.41071884096203787  1.0000
  N   N1        1.0  0.33333333334941356  0.6666666666988271  0.6310150317073437  1.0000
  N   N2        1.0  0.6666666665363986  0.33333333334941356  0.13101503143745763  1.0000
  N   N3        1.0  0.33333333334941356  0.6666666666988271  0.979646263447127  1.0000
  N   N4        1.0  0.6666666665363986  0.33333333334941356  0.47964626317724085  1.0000
  N   N5        1.0  0.6518252725680758  0.7843227051170977  0.32677379230183046  1.0000
  N   N6        1.0  0.21567729508400685  0.8675025678560698  0.32677379230183046  1.0000
  N   N7        1.0  0.132497432396158  0.34817472712331365  0.32677379230183046  1.0000
  N   N8        1.0  0.7843227051586564  0.6518252729249269  0.8267737925717166  1.0000
  N   N9        1.0  0.8675025673367903  0.21567729493114293  0.8267737925717166  1.0000
  N   N10       1.0  0.3481747271137491  0.13249743219217075  0.8267737925717166  1.0000
  O   O1        1.0  0.5159970548868493  0.6734169940764966  0.30089447001450004  1.0000
  O   O2        1.0  0.3265830065008665  0.842580060313189  0.30089447001450004  1.0000
  O   O3        1.0  0.15741993965918313  0.48400294570679564  0.30089447001450004  1.0000
  O   O4        1.0  0.6734169938381996  0.5159970543414449  0.8008944688904223  1.0000
  O   O5        1.0  0.8425800606961649  0.32658300597174406  0.8008944688904223  1.0000
  O   O6        1.0  0.48400294607348965  0.1574199397350516  0.8008944688904223  1.0000
  O   O7        1.0  0.6944920041006063  0.9178488635717104  0.2706402170274673  1.0000
  O   O8        1.0  0.08215113660423722  0.7766431407573566  0.2706402170274673  1.0000
  O   O9        1.0  0.22335685934339702  0.30550799576741416  0.2706402170274673  1.0000
  O   O10       1.0  0.917848863461795  0.6944920042808265  0.7706402172973534  1.0000
  O   O11       1.0  0.7766431404147082  0.08215113647653025  0.7706402172973534  1.0000
  O   O12       1.0  0.30550799573269266  0.22335685929088395  0.7706402172973534  1.0000
  O   O13       1.0  0.7465848027548977  0.7556554575467813  0.41598395005695693  1.0000
  O   O14       1.0  0.2443445416177321  0.9909293443190255  0.41598395005695693  1.0000
  O   O15       1.0  0.009070655099035214  0.25341519707752314  0.41598395005695693  1.0000
  O   O16       1.0  0.7556554573307486  0.7465848018175661  0.9159839503268431  1.0000
  O   O17       1.0  0.9909293450939286  0.24434454250145926  0.9159839503268431  1.0000
  O   O18       1.0  0.2534151981831771  0.009070655729215211  0.9159839503268431  1.0000
  O   O19       1.0  0.0  0.0  0.493958223262486  1.0000
  O   O20       1.0  0.0  0.0  0.9939582235323722  1.0000
