data_image0
_chemical_formula_structural       H84C96N16O12Cl4Br16
_chemical_formula_sum              "H84 C96 N16 O12 Cl4 Br16"
_cell_length_a       9.088682570280218
_cell_length_b       14.942210371531464
_cell_length_c       19.57065086482305
_cell_angle_alpha    90.0
_cell_angle_beta     90.0
_cell_angle_gamma    90.0

_space_group_name_H-M_alt    "P 1"
_space_group_IT_number       1

loop_
  _space_group_symop_operation_xyz
  'x, y, z'

loop_
  _atom_site_type_symbol
  _atom_site_label
  _atom_site_symmetry_multiplicity
  _atom_site_fract_x
  _atom_site_fract_y
  _atom_site_fract_z
  _atom_site_occupancy
  H   H1        1.0  0.9649045691921021  0.30982322326422423  0.26639910118529103  1.0000
  H   H2        1.0  0.46490456865738305  0.190176777019152  0.7336008990792351  1.0000
  H   H3        1.0  0.03509543077706648  0.8098232235476005  0.2336008986914874  1.0000
  H   H4        1.0  0.5350954313117855  0.6901767766332833  0.7663991010620695  1.0000
  H   H5        1.0  0.37508242626355637  0.20768000602590533  0.1024227433131986  1.0000
  H   H6        1.0  0.8750824267982754  0.29231999358822586  0.8975772569513275  1.0000
  H   H7        1.0  0.6249175737056121  0.7076800063092815  0.397577257074549  1.0000
  H   H8        1.0  0.12491757317089311  0.792319993871602  0.6024227431899771  1.0000
  H   H9        1.0  0.6893923339878312  0.02556540367868261  0.10637586733213757  1.0000
  H   H10       1.0  0.1893923334531122  0.4744345966046936  0.8936241324214194  1.0000
  H   H11       1.0  0.31060766598133727  0.5255654032928138  0.3936241325446409  1.0000
  H   H12       1.0  0.8106076665160562  0.9744345962188249  0.6063758677198852  1.0000
  H   H13       1.0  0.5887718003815173  0.9978631567393604  0.21648089474709997  1.0000
  H   H14       1.0  0.0887718009470678  0.5021368434415232  0.7835191055174262  1.0000
  H   H15       1.0  0.41122819958765117  0.49786315645598417  0.2835191051296785  1.0000
  H   H16       1.0  0.9112281990221007  0.0021368438273920176  0.7164808946238784  1.0000
  H   H17       1.0  0.19521716115400614  0.24521665863980596  0.33194449458381553  1.0000
  H   H18       1.0  0.6952171605884556  0.2547833409743252  0.6680555051697413  1.0000
  H   H19       1.0  0.8047828388151623  0.7452166589231821  0.16805550529296293  1.0000
  H   H20       1.0  0.3047828393807128  0.7547833412577014  0.8319444949715631  1.0000
  H   H21       1.0  0.7419861743275827  0.02975982126762306  0.3236117287945529  1.0000
  H   H22       1.0  0.24198617379286372  0.47024017834650816  0.676388270959004  1.0000
  H   H23       1.0  0.25801382564158576  0.5297598215509993  0.17638827108222552  1.0000
  H   H24       1.0  0.7580138261763048  0.9702401786298843  0.8236117291823006  1.0000
  H   H25       1.0  0.7517150695020209  0.10272897796463525  0.39664977233603044  1.0000
  H   H26       1.0  0.25171507006757143  0.397271022318741  0.6033502279284957  1.0000
  H   H27       1.0  0.24828493046714759  0.6027289775787664  0.10335022805171726  1.0000
  H   H28       1.0  0.7482849299015971  0.8972710219328722  0.8966497722128088  1.0000
  H   H29       1.0  0.5056155954909004  0.14538601157288797  0.02424741329645556  1.0000
  H   H30       1.0  0.005615594956181466  0.3546139880412433  0.9757525864571014  1.0000
  H   H31       1.0  0.494384404478268  0.6453860118562641  0.4757525865803229  1.0000
  H   H32       1.0  0.994384405012987  0.8546139883246194  0.5242474136842032  1.0000
  H   H33       1.0  0.6418082428221666  0.22470202844934759  0.9982954534801388  1.0000
  H   H34       1.0  0.14180824338771716  0.27529797183402865  0.0017045462734180566  1.0000
  H   H35       1.0  0.3581917571470018  0.7247020287327238  0.5017045461501966  1.0000
  H   H36       1.0  0.8581917576817208  0.7752979714481598  0.4982954536033604  1.0000
  H   H37       1.0  0.6839427168824918  0.1084388527340704  0.001600559951549839  1.0000
  H   H38       1.0  0.1839427174480422  0.3915611475493059  0.9983994398020071  1.0000
  H   H39       1.0  0.31605728308667674  0.6084388523482015  0.49839943992522867  1.0000
  H   H40       1.0  0.8160572825211263  0.891561147163437  0.5016005598283283  1.0000
  H   H41       1.0  0.8632243693552287  0.2575659025208562  0.07216221063646107  1.0000
  H   H42       1.0  0.36322436882050974  0.242434097093275  0.9278377891170958  1.0000
  H   H43       1.0  0.1367756306139398  0.7575659028042324  0.42783778924031735  1.0000
  H   H44       1.0  0.6367756311486588  0.7424340973766511  0.5721622105132395  1.0000
  H   H45       1.0  0.8982969706409586  0.19234761113227627  0.14680479355769127  1.0000
  H   H46       1.0  0.39829697010623955  0.3076523884818549  0.8531952061958656  1.0000
  H   H47       1.0  0.10170302932821  0.6923476114156525  0.3531952063190872  1.0000
  H   H48       1.0  0.601703029862929  0.8076523887652312  0.6468047939454389  1.0000
  H   H49       1.0  0.8963139098551263  0.14066616770464963  0.06515116328051301  1.0000
  H   H50       1.0  0.3963139104206767  0.3593338325787266  0.934848836984013  1.0000
  H   H51       1.0  0.10368609011404227  0.6406661679880259  0.43484883659626544  1.0000
  H   H52       1.0  0.6036860895484918  0.8593338321928579  0.5651511631572914  1.0000
  H   H53       1.0  0.43059308428232856  0.8909132430207912  0.45314311420986986  1.0000
  H   H54       1.0  0.930593083716778  0.6090867571600924  0.5468568860546563  1.0000
  H   H55       1.0  0.56940691568684  0.390913242737415  0.04685688566690862  1.0000
  H   H56       1.0  0.06940691625239047  0.10908675687671619  0.9531431140866482  1.0000
  H   H57       1.0  0.25773432858793066  0.9463306718623535  0.4522034878209973  1.0000
  H   H58       1.0  0.7577343291226496  0.55366932831853  0.5477965119325596  1.0000
  H   H59       1.0  0.7422656713812378  0.4463306722482224  0.04779651205578121  1.0000
  H   H60       1.0  0.24226567084651882  0.05366932803515383  0.9522034876977756  1.0000
  H   H61       1.0  0.23222800704931273  0.9996454358893542  0.6619291774952998  1.0000
  H   H62       1.0  0.7322280075840317  0.5003545642915296  0.33807082225825713  1.0000
  H   H63       1.0  0.7677719929198558  0.4996454356059779  0.8380708226460047  1.0000
  H   H64       1.0  0.2677719923851368  0.00035456400815329957  0.16192917761852132  1.0000
  H   H65       1.0  0.31482003556339205  0.898239927445512  0.6872671503315182  1.0000
  H   H66       1.0  0.8148200360981112  0.6017600727353717  0.31273284942203877  1.0000
  H   H67       1.0  0.6851799644057764  0.39823992716213574  0.8127328492988172  1.0000
  H   H68       1.0  0.18517996387105742  0.10176007245199546  0.18726715045473968  1.0000
  H   H69       1.0  0.42709620013501254  0.9919016083616373  0.6603680531253936  1.0000
  H   H70       1.0  0.9270962006697315  0.5080983918192462  0.3396319471391325  1.0000
  H   H71       1.0  0.572903799834156  0.49190160874750616  0.8396319470159109  1.0000
  H   H72       1.0  0.07290379929943697  0.008098391535870044  0.16036805273764598  1.0000
  H   H73       1.0  0.3860534728623294  0.09456782730700991  0.4362501895808662  1.0000
  H   H74       1.0  0.8860534722967789  0.40543217297636636  0.5637498106836599  1.0000
  H   H75       1.0  0.6139465271068392  0.5945678269211411  0.06374981029591223  1.0000
  H   H76       1.0  0.11394652767238962  0.9054321725904976  0.9362501894576447  1.0000
  H   H77       1.0  0.559091221495189  0.03819191577487544  0.4364615213361853  1.0000
  H   H78       1.0  0.05909122096046992  0.46180808383925576  0.5635384789283407  1.0000
  H   H79       1.0  0.44090877847397963  0.5381919160582517  0.06353847905156235  1.0000
  H   H80       1.0  0.9409087790086985  0.961808084122632  0.9364615212129638  1.0000
  H   H81       1.0  0.4314721137718306  0.019079070827643624  0.3691834231730507  1.0000
  H   H82       1.0  0.9314721132062801  0.4809209294557326  0.6308165770914754  1.0000
  H   H83       1.0  0.5685278861973379  0.5190790704417748  0.1308165767037277  1.0000
  H   H84       1.0  0.06852788676288837  0.9809209290698638  0.8691834230498292  1.0000
  C   C1        1.0  0.8547960653180201  0.289277067617472  0.2508163930726982  1.0000
  C   C2        1.0  0.3547960658835706  0.21072293266590417  0.7491836066808586  1.0000
  C   C3        1.0  0.1452039346511484  0.7892770672316033  0.24918360680408022  1.0000
  C   C4        1.0  0.6452039340855978  0.7107229329492804  0.7508163929494767  1.0000
  C   C5        1.0  0.7716893483478496  0.3409333782173134  0.20973882005007669  1.0000
  C   C6        1.0  0.27168934781313064  0.1590666220660628  0.7902611797034802  1.0000
  C   C7        1.0  0.22831065162131892  0.8409333785006896  0.29026117982670174  1.0000
  C   C8        1.0  0.7283106521560379  0.659066621680194  0.7097388204378243  1.0000
  C   C9        1.0  0.628680517315485  0.31625255450848466  0.18146356677300574  1.0000
  C   C10       1.0  0.1286805178810356  0.18374744577489155  0.8185364334915204  1.0000
  C   C11       1.0  0.3713194826536834  0.8162525541226159  0.31853643361474193  1.0000
  C   C12       1.0  0.8713194820881329  0.6837474453890228  0.6814635666497841  1.0000
  C   C13       1.0  0.3958709155235763  0.32288890733275805  0.16597804653694992  1.0000
  C   C14       1.0  0.8958709160582953  0.17711109295061814  0.834021953216607  1.0000
  C   C15       1.0  0.6041290844455922  0.8228889069468893  0.33402195333982854  1.0000
  C   C16       1.0  0.10412908391087325  0.6771110925647493  0.6659780464137284  1.0000
  C   C17       1.0  0.5935224823055609  0.2459811118040957  0.13688593028938192  1.0000
  C   C18       1.0  0.09352248177084188  0.25401888781003545  0.8631140699751442  1.0000
  C   C19       1.0  0.4064775176636076  0.745981112087472  0.3631140700983657  1.0000
  C   C20       1.0  0.9064775181983267  0.7540188880934118  0.6368859301661604  1.0000
  C   C21       1.0  0.6783892717478749  0.17251930778001706  0.10127388167567315  1.0000
  C   C22       1.0  0.17838927121315581  0.32748069183411416  0.8987261180778837  1.0000
  C   C23       1.0  0.32161072822129366  0.6725193080633933  0.3987261182011053  1.0000
  C   C24       1.0  0.8216107287560127  0.8274806921174904  0.6012738820634208  1.0000
  C   C25       1.0  0.6560472724064081  0.08325615481697278  0.13698736840780282  1.0000
  C   C26       1.0  0.15604727297195867  0.41674384479715837  0.8630126318567233  1.0000
  C   C27       1.0  0.3439527275627603  0.5832561551003489  0.3630126319799448  1.0000
  C   C28       1.0  0.8439527269972098  0.9167438450805346  0.6369873682845814  1.0000
  C   C29       1.0  0.6003108952051103  0.06741022746668528  0.19919450185517615  1.0000
  C   C30       1.0  0.10031089467039127  0.4325897728166909  0.8008054978983808  1.0000
  C   C31       1.0  0.3996891047640583  0.5674102270808165  0.30080549802160234  1.0000
  C   C32       1.0  0.8996891052987772  0.9325897724308222  0.6991945017319546  1.0000
  C   C33       1.0  0.5570801082388221  0.13476418079593758  0.2503238969331179  1.0000
  C   C34       1.0  0.05708010880437264  0.36523581881819367  0.7496761033314082  1.0000
  C   C35       1.0  0.44291989173034635  0.6347641810793138  0.2496761034546298  1.0000
  C   C36       1.0  0.9429198911647958  0.8652358191015699  0.7503238968098963  1.0000
  C   C37       1.0  0.4265342738095514  0.21807062870752716  0.31977010234486053  1.0000
  C   C38       1.0  0.9265342743442703  0.281929370906604  0.6802298974086964  1.0000
  C   C39       1.0  0.573465726159617  0.7180706289909035  0.18022989753191795  1.0000
  C   C40       1.0  0.07346572562489809  0.7819293711899803  0.8197701022216389  1.0000
  C   C41       1.0  0.3063094566756518  0.2600696003720976  0.34931536294931553  1.0000
  C   C42       1.0  0.8063094572103708  0.23993039991127865  0.6506846373152105  1.0000
  C   C43       1.0  0.6936905432935166  0.7600696006554738  0.15068463743843213  1.0000
  C   C44       1.0  0.1936905427587977  0.7399303995254097  0.849315362826094  1.0000
  C   C45       1.0  0.333453753782773  0.31894074179813287  0.40338700457785615  1.0000
  C   C46       1.0  0.8334537532172225  0.18105925781599833  0.5966129951757008  1.0000
  C   C47       1.0  0.6665462461863956  0.818940742081509  0.09661299529892235  1.0000
  C   C48       1.0  0.16654624675194601  0.6810592580993745  0.9033870044546346  1.0000
  C   C49       1.0  0.47628712484196006  0.33476235882277455  0.4285185310353665  1.0000
  C   C50       1.0  0.976287125376679  0.1652376414606017  0.5714814687181904  1.0000
  C   C51       1.0  0.5237128751272085  0.8347623584369057  0.07148146884141192  1.0000
  C   C52       1.0  0.023712875692758983  0.6652376417439779  0.928518530912145  1.0000
  C   C53       1.0  0.5963281441606006  0.28965853326801994  0.39798078836507933  1.0000
  C   C54       1.0  0.09632814472615113  0.21034146701535625  0.6020192118994467  1.0000
  C   C55       1.0  0.4036718558085679  0.7896585335513961  0.10201921151169911  1.0000
  C   C56       1.0  0.9036718552430174  0.7103414666294874  0.8979807882418577  1.0000
  C   C57       1.0  0.5707025545111627  0.23232026077037554  0.3436717116081879  1.0000
  C   C58       1.0  0.07070255507671316  0.2676797388437557  0.6563282886563382  1.0000
  C   C59       1.0  0.42929744545800586  0.7323202610537518  0.1563282882685906  1.0000
  C   C60       1.0  0.9292974448924554  0.7676797391271319  0.8436717114849662  1.0000
  C   C61       1.0  0.668513699649725  0.17245383353118277  0.3020545908682761  1.0000
  C   C62       1.0  0.16851370021527548  0.32754616675219345  0.69794540939625  1.0000
  C   C63       1.0  0.3314863003194435  0.672453833814559  0.1979454090085024  1.0000
  C   C64       1.0  0.8314862997538931  0.8275461663663247  0.8020545907450545  1.0000
  C   C65       1.0  0.7592881560817053  0.09862057174670644  0.34090848414204356  1.0000
  C   C66       1.0  0.25928815664725574  0.40137942786742475  0.6590915161224826  1.0000
  C   C67       1.0  0.24071184388746325  0.5986205720300827  0.1590915162457041  1.0000
  C   C68       1.0  0.7407118433219128  0.901379428150801  0.840908484018822  1.0000
  C   C69       1.0  0.8953881706256022  0.14475224857768595  0.3126960984726213  1.0000
  C   C70       1.0  0.3953881700908832  0.35524775170569023  0.6873039012809357  1.0000
  C   C71       1.0  0.10461182934356633  0.6447522488610622  0.18730390140415717  1.0000
  C   C72       1.0  0.6046118298782853  0.8552477513198214  0.8126960983493998  1.0000
  C   C73       1.0  0.6226711832257903  0.16254202622038658  0.026784774488119178  1.0000
  C   C74       1.0  0.12267118269107129  0.33745797406298966  0.9732152252654377  1.0000
  C   C75       1.0  0.3773288178436477  0.6625420265037628  0.4732152253886593  1.0000
  C   C76       1.0  0.8773288172780972  0.8374579736771208  0.5267847743648977  1.0000
  C   C77       1.0  0.8446080606997507  0.19251641012099924  0.09681203058021702  1.0000
  C   C78       1.0  0.34460806016503165  0.307483589493132  0.9031879691733399  1.0000
  C   C79       1.0  0.15539193926941786  0.6925164104043754  0.4031879692965614  1.0000
  C   C80       1.0  0.6553919398041368  0.8074835897765081  0.5968120309679646  1.0000
  C   C81       1.0  0.3252610240417777  0.9544541714639428  0.6516828080012511  1.0000
  C   C82       1.0  0.8252610245764966  0.5455458287169407  0.3483171917523058  1.0000
  C   C83       1.0  0.6747389759273907  0.4544541711805667  0.8483171921400535  1.0000
  C   C84       1.0  0.17473897539267177  0.04554582910280952  0.15168280812447268  1.0000
  C   C85       1.0  0.3145124816381246  0.9238376201890655  0.5792407533249659  1.0000
  C   C86       1.0  0.8145124810725741  0.5761623799918183  0.420759246428591  1.0000
  C   C87       1.0  0.6854875183310439  0.4238376199056892  0.9207592463053694  1.0000
  C   C88       1.0  0.1854875188965944  0.07616238037768705  0.07924075344818746  1.0000
  C   C89       1.0  0.3751828962703961  0.9549133826401605  0.4631825452618619  1.0000
  C   C90       1.0  0.8751828968051151  0.5450866168714782  0.5368174550026642  1.0000
  C   C91       1.0  0.6248171036987724  0.45491338302602924  0.03681745512588576  1.0000
  C   C92       1.0  0.12481710316405341  0.04508661725734701  0.9631825451386404  1.0000
  C   C93       1.0  0.44204137386615006  0.03151196832947149  0.4241313647324651  1.0000
  C   C94       1.0  0.9420413733005997  0.4684880319539047  0.5758686350210918  1.0000
  C   C95       1.0  0.5579586261030184  0.5315119679436027  0.07586863514431332  1.0000
  C   C96       1.0  0.05795862666856886  0.9684880315680359  0.9241313646092435  1.0000
  N   N1        1.0  0.8118767261306715  0.20754654451315624  0.27757504630386326  1.0000
  N   N2        1.0  0.31187672559595253  0.29245345577022  0.7224249534496936  1.0000
  N   N3        1.0  0.18812327383849697  0.7075465441272873  0.2224249535729152  1.0000
  N   N4        1.0  0.688123274373216  0.7924534553843512  0.7775750466916109  1.0000
  N   N5        1.0  0.5025379239159828  0.3645404678800355  0.19841458349142693  1.0000
  N   N6        1.0  0.002537924481533392  0.1354595324033407  0.80158541626213  1.0000
  N   N7        1.0  0.4974620760531856  0.8645404681634118  0.3015854163853515  1.0000
  N   N8        1.0  0.9974620765879045  0.635459532017472  0.6984145833682054  1.0000
  N   N9        1.0  0.44349863897554115  0.25307649979314417  0.12743604529182068  1.0000
  N   N10       1.0  0.9434986384099907  0.24692349982098702  0.8725639544617363  1.0000
  N   N11       1.0  0.5565013609936273  0.7530765000765204  0.3725639545849578  1.0000
  N   N12       1.0  0.0565013615591778  0.7469235001043633  0.6274360456795683  1.0000
  N   N13       1.0  0.42208316885708164  0.1572593031133427  0.2643074584349941  1.0000
  N   N14       1.0  0.9220831682915311  0.3427406965007885  0.7356925413185629  1.0000
  N   N15       1.0  0.5779168311120869  0.6572593033967189  0.23569254144178436  1.0000
  N   N16       1.0  0.07791683167763734  0.8427406967841646  0.7643074588227418  1.0000
  O   O1        1.0  0.02834647904223778  0.13625560739520823  0.31782191368913565  1.0000
  O   O2        1.0  0.5283464784766874  0.36374439288816796  0.6821780865753905  1.0000
  O   O3        1.0  0.9716535209269308  0.6362556070093395  0.18217808669861202  1.0000
  O   O4        1.0  0.47165352149248124  0.8637443925022992  0.817821913565914  1.0000
  O   O5        1.0  0.2413785642788008  0.8594753065763283  0.5586435083593143  1.0000
  O   O6        1.0  0.7413785648135197  0.6405246929353103  0.4413564913942425  1.0000
  O   O7        1.0  0.7586214356903677  0.35947530696219715  0.941356491271021  1.0000
  O   O8        1.0  0.25862143515564867  0.14052469332117903  0.05864350848253594  1.0000
  O   O9        1.0  0.3914067646759415  0.9752999461020413  0.535971022754988  1.0000
  O   O10       1.0  0.8914067641103909  0.5247000540788423  0.4640289775095382  1.0000
  O   O11       1.0  0.6085932352932271  0.475299945818665  0.9640289773863168  1.0000
  O   O12       1.0  0.10859323585877753  0.024700053795466186  0.035971022878209476  1.0000
  Cl  Cl1       1.0  0.8404113776596008  0.44651619232397244  0.18869564867859032  1.0000
  Cl  Cl2       1.0  0.34041137822515133  0.05348380729015873  0.8113043510749666  1.0000
  Cl  Cl3       1.0  0.15958862230956763  0.9465161926073486  0.3113043511981881  1.0000
  Cl  Cl4       1.0  0.6595886217440171  0.553483807573535  0.688695649066338  1.0000
  Br  Br1       1.0  0.19589122034274192  0.35320874413971143  0.16947938026740683  1.0000
  Br  Br2       1.0  0.6958912197771914  0.14679125547441976  0.8305206199971193  1.0000
  Br  Br3       1.0  0.8041087796264266  0.8532087444230877  0.33052062012034084  1.0000
  Br  Br4       1.0  0.30410878019197707  0.6467912557577961  0.6694793801441853  1.0000
  Br  Br5       1.0  0.16679910518134203  0.37749965699498256  0.44157037748463945  1.0000
  Br  Br6       1.0  0.666799105716061  0.12250034328839361  0.5584296222689175  1.0000
  Br  Br7       1.0  0.8332008947878264  0.8774996566091138  0.05842962239213902  1.0000
  Br  Br8       1.0  0.3332008942531075  0.6225003429025249  0.9415703778723871  1.0000
  Br  Br9       1.0  0.5090670044005454  0.4120053089152852  0.5035309667555657  1.0000
  Br  Br10      1.0  0.009067004966095901  0.08799469136809102  0.49646903299799117  1.0000
  Br  Br11      1.0  0.49093299556862313  0.9120053085294164  0.9964690328747696  1.0000
  Br  Br12      1.0  0.9909329950030725  0.5879946916514672  0.003530966878787288  1.0000
  Br  Br13      1.0  0.7916544784529936  0.30597994984134347  0.43017489546718346  1.0000
  Br  Br14      1.0  0.2916544779182747  0.19402004977278772  0.5698251042863735  1.0000
  Br  Br15      1.0  0.2083455215161748  0.8059799501247197  0.06982510440959498  1.0000
  Br  Br16      1.0  0.7083455220508938  0.694020050056164  0.9301748953439619  1.0000
