data_image0
_chemical_formula_structural       H76C40N12O32
_chemical_formula_sum              "H76 C40 N12 O32"
_cell_length_a       6.481366119960401
_cell_length_b       18.718966965592646
_cell_length_c       10.954440662287386
_cell_angle_alpha    90.0
_cell_angle_beta     93.05809628413363
_cell_angle_gamma    90.0

_space_group_name_H-M_alt    "P 1"
_space_group_IT_number       1

loop_
  _space_group_symop_operation_xyz
  'x, y, z'

loop_
  _atom_site_type_symbol
  _atom_site_label
  _atom_site_symmetry_multiplicity
  _atom_site_fract_x
  _atom_site_fract_y
  _atom_site_fract_z
  _atom_site_occupancy
  H   H1        1.0  0.6298592399263402  0.2376909665035639  0.8122010239581847  1.0000
  H   H2        1.0  0.3701407603547929  0.7376909663541795  0.6877989760906716  1.0000
  H   H3        1.0  0.37014076109881117  0.7623090337318847  0.1877989757003337  1.0000
  H   H4        1.0  0.6298592391502722  0.2623090338812692  0.3122010244472724  1.0000
  H   H5        1.0  0.0006992806629349535  0.3383344049723039  0.1465182197554056  1.0000
  H   H6        1.0  0.9993007195861483  0.838334405357137  0.35348178039220046  1.0000
  H   H7        1.0  0.9993007203622164  0.6616655947289273  0.8534817799031128  1.0000
  H   H8        1.0  0.000699279918916658  0.16166559487831167  0.6465182201457436  1.0000
  H   H9        1.0  0.17628582444851204  0.40170431807596985  0.10988488028143484  1.0000
  H   H10       1.0  0.8237141758005713  0.9017043179265855  0.39011511986617126  1.0000
  H   H11       1.0  0.8237141750317535  0.5982956821594788  0.8901151193429723  1.0000
  H   H12       1.0  0.17628582370449375  0.0982956817746457  0.6098848806717727  1.0000
  H   H13       1.0  0.25779120403387407  0.2935711099923946  0.5192739428959533  1.0000
  H   H14       1.0  0.742208796247259  0.7935711098430102  0.9807260571529032  1.0000
  H   H15       1.0  0.7422087954463915  0.706428890243054  0.48072605672845375  1.0000
  H   H16       1.0  0.25779120477789236  0.20642889039243845  0.019273942505615375  1.0000
  H   H17       1.0  0.29826461191833165  0.3809379167721737  0.5269121244578542  1.0000
  H   H18       1.0  0.7017353883628012  0.8809379166227892  0.9730878755910023  1.0000
  H   H19       1.0  0.7017353875619338  0.6190620829290574  0.4730878751665528  1.0000
  H   H20       1.0  0.2982646111422636  0.11906208307844185  0.026912124946941812  1.0000
  H   H21       1.0  0.3298735774593355  0.4564692087819749  0.8012349805157948  1.0000
  H   H22       1.0  0.6701264212769117  0.9564692091668079  0.6987650194989501  1.0000
  H   H23       1.0  0.6701264220457295  0.5435307909192562  0.19876502002214913  1.0000
  H   H24       1.0  0.3298735782033538  0.04353079106864067  0.301234980125457  1.0000
  H   H25       1.0  0.23846430351241055  0.46246957569359226  0.6541835497301045  1.0000
  H   H26       1.0  0.7615356952238367  0.9624695755442078  0.8458164502846404  1.0000
  H   H27       1.0  0.761535695967855  0.537530424007639  0.3458164498943025  1.0000
  H   H28       1.0  0.23846430425642887  0.03753042415702333  0.15418354933976663  1.0000
  H   H29       1.0  0.28950713485083035  0.4177463683959456  0.3162319241402862  1.0000
  H   H30       1.0  0.7104928653982528  0.9177463687807786  0.1837680760073199  1.0000
  H   H31       1.0  0.7104928646294351  0.5822536313052855  0.6837680754841208  1.0000
  H   H32       1.0  0.2895071356516979  0.08225363145467  0.8162319245647355  1.0000
  H   H33       1.0  0.29868029504080873  0.3258219879980916  0.27699678722881127  1.0000
  H   H34       1.0  0.7013197052082745  0.8258219878487072  0.2230032129187948  1.0000
  H   H35       1.0  0.7013197059843426  0.6741780122373571  0.7230032124297071  1.0000
  H   H36       1.0  0.29868029429679044  0.17417801238674147  0.7769967876191491  1.0000
  H   H37       1.0  0.9482209267363123  0.39714468558359545  0.4146626650315338  1.0000
  H   H38       1.0  0.051779073512770966  0.8971446854342111  0.08533733511607225  1.0000
  H   H39       1.0  0.05177907274395322  0.6028553141176357  0.5853373345928732  1.0000
  H   H40       1.0  0.9482209275371799  0.10285531426702015  0.9146626654559832  1.0000
  H   H41       1.0  0.9665606977877904  0.30396857264926824  0.37887480293293424  1.0000
  H   H42       1.0  0.033439302461292834  0.8039685724998838  0.12112519721467187  1.0000
  H   H43       1.0  0.03343930326216038  0.6960314270519629  0.6211251976391212  1.0000
  H   H44       1.0  0.9665606970189727  0.19603142720134734  0.8788748024097351  1.0000
  H   H45       1.0  0.9104204142580394  0.3779740235134282  0.6009523270379611  1.0000
  H   H46       1.0  0.08957958447820764  0.8779740238982613  0.8990476729767838  1.0000
  H   H47       1.0  0.08957958522222595  0.622025976187803  0.39904767258644586  1.0000
  H   H48       1.0  0.9104204150020578  0.12202597633718736  0.10095232664762327  1.0000
  H   H49       1.0  0.9822257585426188  0.2887233718577637  0.6346696636333157  1.0000
  H   H50       1.0  0.017774241738514253  0.7887233722425968  0.8653303364155407  1.0000
  H   H51       1.0  0.017774240937646707  0.7112766278434673  0.3653303359910914  1.0000
  H   H52       1.0  0.9822257593114365  0.21127662799285185  0.13466966415651474  1.0000
  H   H53       1.0  0.31023219398679225  0.3387488145929981  0.750969039296918  1.0000
  H   H54       1.0  0.6897678062943408  0.8387488149778313  0.7490309607519384  1.0000
  H   H55       1.0  0.6897678070383589  0.661251185108233  0.24903096036160052  1.0000
  H   H56       1.0  0.3102321932107242  0.16125118525761742  0.25096903978600565  1.0000
  H   H57       1.0  0.07098816561907513  0.35200511342915264  0.8184400048478474  1.0000
  H   H58       1.0  0.9290118331171721  0.8520051132797681  0.6815599951668974  1.0000
  H   H59       1.0  0.9290118338859898  0.6479948862720785  0.1815599956900965  1.0000
  H   H60       1.0  0.07098816636309342  0.1479948864214629  0.3184400044575096  1.0000
  H   H61       1.0  0.9110541226777555  0.49056151586136804  0.6939468192545618  1.0000
  H   H62       1.0  0.0889458776033775  0.9905615157119835  0.8060531807942944  1.0000
  H   H63       1.0  0.08894587680250994  0.5094384843740806  0.30605318036984513  1.0000
  H   H64       1.0  0.9110541234217739  0.009438484523465065  0.19394681886422394  1.0000
  H   H65       1.0  0.9404584967370937  0.4604413612055927  0.8477565317479989  1.0000
  H   H66       1.0  0.059541503544039295  0.9604413610562083  0.6522434683008574  1.0000
  H   H67       1.0  0.059541502767971204  0.539558639029856  0.15224346878994516  1.0000
  H   H68       1.0  0.9404584959362262  0.0395586391792404  0.3477565313235495  1.0000
  H   H69       1.0  0.787678962812842  0.4185872315711908  0.24395072064025947  1.0000
  H   H70       1.0  0.21232103743624126  0.9185872314218064  0.2560492795073467  1.0000
  H   H71       1.0  0.21232103823710882  0.5814127686642577  0.756049279931796  1.0000
  H   H72       1.0  0.7876789620440242  0.08141276827942472  0.7439507201170604  1.0000
  H   H73       1.0  0.8346908498739621  0.4411359155223854  0.09154011535277784  1.0000
  H   H74       1.0  0.1653091503751211  0.9411359159072185  0.40845988479482825  1.0000
  H   H75       1.0  0.16530915117598866  0.5588640841788457  0.9084598852192777  1.0000
  H   H76       1.0  0.8346908491051444  0.058864084328230155  0.5915401148295788  1.0000
  C   C1        1.0  0.5828548149236679  0.27670384479659843  0.1077074806085463  1.0000
  C   C2        1.0  0.41714518375573  0.776703844647214  0.39229251859141134  1.0000
  C   C3        1.0  0.4171451845565976  0.7232961554388502  0.8922925190158607  1.0000
  C   C4        1.0  0.5828548157245353  0.22329615558823468  0.6077074810329957  1.0000
  C   C5        1.0  0.6771500618838963  0.27826352381380404  0.9808849504752372  1.0000
  C   C6        1.0  0.3228499383972368  0.7782635236644195  0.5191150495736192  1.0000
  C   C7        1.0  0.32284993759636926  0.7217364764216446  0.019115049149169863  1.0000
  C   C8        1.0  0.6771500626279147  0.22173647603681151  0.48088495008489923  1.0000
  C   C9        1.0  0.1952375594866752  0.3701901789098333  0.2958713595913733  1.0000
  C   C10       1.0  0.804762440762408  0.8701901787604488  0.20412864055623284  1.0000
  C   C11       1.0  0.8047624399935903  0.6298098207913978  0.7041286400330338  1.0000
  C   C12       1.0  0.19523756028754277  0.1298098209407823  0.7958713600158225  1.0000
  C   C13       1.0  0.05495808520578914  0.35294162931874323  0.39863614342007697  1.0000
  C   C14       1.0  0.9450419150432942  0.8529416297035763  0.10136385672752919  1.0000
  C   C15       1.0  0.9450419142744764  0.6470583703824878  0.6013638562043301  1.0000
  C   C16       1.0  0.054958086006656685  0.1470583705318723  0.8986361438445264  1.0000
  C   C17       1.0  0.04275959207909785  0.3427931745269174  0.6233096771996411  1.0000
  C   C18       1.0  0.9572404082020353  0.8427931749117504  0.8766903228492153  1.0000
  C   C19       1.0  0.957240407425967  0.6572068251743137  0.3766903233383029  1.0000
  C   C20       1.0  0.042759592823116144  0.1572068253236982  0.12330967680930323  1.0000
  C   C21       1.0  0.16059494893572568  0.36588413306082035  0.739662399285428  1.0000
  C   C22       1.0  0.8394050513454073  0.8658841334456534  0.7603376007634285  1.0000
  C   C23       1.0  0.8394050505445397  0.6341158666404108  0.260337600338979  1.0000
  C   C24       1.0  0.16059494815965758  0.1341158667897952  0.23966239977451562  1.0000
  C   C25       1.0  0.017987712273133574  0.4877961004356583  0.7748405728011682  1.0000
  C   C26       1.0  0.9820122880079996  0.9877961002862738  0.725159427247688  1.0000
  C   C27       1.0  0.9820122872071321  0.5122038992655727  0.2251594268232387  1.0000
  C   C28       1.0  0.017987713017151873  0.012203899414957241  0.27484057241083043  1.0000
  C   C29       1.0  0.905253424516962  0.4386268534525431  0.18441544380951527  1.0000
  C   C30       1.0  0.09474657418723542  0.9386268533031585  0.31558455630397936  1.0000
  C   C31       1.0  0.09474657496330352  0.5613731462486881  0.8155845558148919  1.0000
  C   C32       1.0  0.9052534253178296  0.06137314639807249  0.6844154442339646  1.0000
  C   C33       1.0  0.4297869950386591  0.48155980009843485  0.04704060585405367  1.0000
  C   C34       1.0  0.5702130051856247  0.9815597999490505  0.45295939338001545  1.0000
  C   C35       1.0  0.5702130044416064  0.5184401996027962  0.9529593937703534  1.0000
  C   C36       1.0  0.4297869958395267  0.018440199752180687  0.547040606278503  1.0000
  C   C37       1.0  0.4132386300919438  0.5290337473324598  0.49183860808244484  1.0000
  C   C38       1.0  0.5867613701571395  0.029033746947626674  0.00816139206516129  1.0000
  C   C39       1.0  0.5867613709580071  0.4709662529029889  0.5081613924896107  1.0000
  C   C40       1.0  0.41323862932312605  0.9709662527536045  0.9918386075592458  1.0000
  N   N1        1.0  0.07284077280124525  0.3844194342148718  0.1793471716208105  1.0000
  N   N2        1.0  0.927159227447838  0.8844194340654873  0.3206528285267956  1.0000
  N   N3        1.0  0.9271592266790202  0.6155805660205769  0.8206528280035965  1.0000
  N   N4        1.0  0.07284077360211279  0.11558056616996128  0.6793471720452599  1.0000
  N   N5        1.0  0.17703462238085133  0.3422652709295573  0.5158685435890611  1.0000
  N   N6        1.0  0.8229653779002817  0.8422652707801729  0.9841314564597952  1.0000
  N   N7        1.0  0.8229653771242137  0.6577347293058913  0.4841314569488828  1.0000
  N   N8        1.0  0.17703462312486962  0.15773472945527575  0.01586854319872328  1.0000
  N   N9        1.0  0.19928001759342776  0.44428668661506426  0.7416432445395676  1.0000
  N   N10       1.0  0.8007199811428195  0.9442866864656798  0.7583567554751772  1.0000
  N   N11       1.0  0.8007199819116373  0.5557133136203843  0.2583567559983764  1.0000
  N   N12       1.0  0.19928001833744602  0.05571331323555129  0.2416432441492297  1.0000
  O   O1        1.0  0.39186445895591404  0.2686096465281523  0.11340631831563945  1.0000
  O   O2        1.0  0.6081355412683698  0.7686096463787678  0.38659368091842966  1.0000
  O   O3        1.0  0.6081355420692374  0.7313903531730788  0.8865936813428791  1.0000
  O   O4        1.0  0.3918644582118957  0.23139035332246324  0.6134063187059774  1.0000
  O   O5        1.0  0.7151833433196444  0.2831473916131351  0.19814150485113358  1.0000
  O   O6        1.0  0.28481665692943886  0.7831473914637507  0.3018584952964726  1.0000
  O   O7        1.0  0.28481665770550696  0.7168526086223135  0.8018584948073849  1.0000
  O   O8        1.0  0.7151833425756261  0.21685260823748045  0.6981415052414714  1.0000
  O   O9        1.0  0.5578838266928915  0.24702704794017466  0.8962567989884891  1.0000
  O   O10       1.0  0.44211617358824157  0.7470270483250078  0.6037432010603673  1.0000
  O   O11       1.0  0.44211617278737403  0.7529729517610564  0.10374320063591792  1.0000
  O   O12       1.0  0.5578838274617093  0.2529729519104409  0.39625679951168824  1.0000
  O   O13       1.0  0.8495690806791684  0.3044485147324245  0.9668901748701687  1.0000
  O   O14       1.0  0.15043091957716528  0.8044485151172576  0.5331098242651505  1.0000
  O   O15       1.0  0.15043091880109719  0.6955514849688066  0.033109824754238175  1.0000
  O   O16       1.0  0.8495690799031004  0.19555148511819107  0.4668901753592565  1.0000
  O   O17       1.0  0.2999263609867917  0.4358857807163011  0.003969090537836273  1.0000
  O   O18       1.0  0.7000736392622916  0.9358857805669167  0.4960309096097698  1.0000
  O   O19       1.0  0.7000736384934739  0.5641142195191475  0.9960309090865708  1.0000
  O   O20       1.0  0.29992636178765925  0.06411421966853195  0.5039690909622856  1.0000
  O   O21       1.0  0.45424849138872797  0.49950743954977483  0.15802777495984136  1.0000
  O   O22       1.0  0.5457515088603553  0.9995074394003903  0.34197222518776477  1.0000
  O   O23       1.0  0.5457515080915375  0.5004925601514563  0.8419722246645657  1.0000
  O   O24       1.0  0.45424849218959557  0.00049256030084073  0.6580277753842907  1.0000
  O   O25       1.0  0.4624509557251777  0.5889570765451135  0.4485873483979842  1.0000
  O   O26       1.0  0.5375490445239056  0.08895707669449804  0.0514126517496219  1.0000
  O   O27       1.0  0.5375490437550878  0.411042923690335  0.5514126512264228  1.0000
  O   O28       1.0  0.4624509549811594  0.9110429235409505  0.9485873487883221  1.0000
  O   O29       1.0  0.2342039347236241  0.5114211990221816  0.5228840570568937  1.0000
  O   O30       1.0  0.7657960655575089  0.011421199171566105  0.9771159429919625  1.0000
  O   O31       1.0  0.7657960663263267  0.48857880067904946  0.4771159435151616  1.0000
  O   O32       1.0  0.23420393392275657  0.988578800529665  0.02288405663244441  1.0000
