data_image0
_chemical_formula_structural       H64C84N16O12Cl8
_chemical_formula_sum              "H64 C84 N16 O12 Cl8"
_cell_length_a       20.700891831328356
_cell_length_b       4.580395594118501
_cell_length_c       20.09634774065113
_cell_angle_alpha    90.0
_cell_angle_beta     90.60223704983791
_cell_angle_gamma    90.0

_space_group_name_H-M_alt    "P 1"
_space_group_IT_number       1

loop_
  _space_group_symop_operation_xyz
  'x, y, z'

loop_
  _atom_site_type_symbol
  _atom_site_label
  _atom_site_symmetry_multiplicity
  _atom_site_fract_x
  _atom_site_fract_y
  _atom_site_fract_z
  _atom_site_occupancy
  H   H1        1.0  0.5712850980551178  0.7889124936370099  0.35588422958780047  1.0000
  H   H2        1.0  0.42871490208781826  0.2889124929949803  0.14411577042184048  1.0000
  H   H3        1.0  0.4287149018643014  0.21108750764704928  0.6441157701140954  1.0000
  H   H4        1.0  0.5712850983200465  0.7110875082890789  0.8558842297773767  1.0000
  H   H5        1.0  0.7121709279257373  0.6678832771405497  0.28969170481890805  1.0000
  H   H6        1.0  0.28782907221719883  0.1678832764985202  0.2103082951907329  1.0000
  H   H7        1.0  0.2878290724821273  0.33211672196029185  0.7103082953803092  1.0000
  H   H8        1.0  0.7121709277022205  0.8321167226023215  0.7896917045111629  1.0000
  H   H9        1.0  0.8201370449015095  0.6016693631307125  0.23827171210050305  1.0000
  H   H10       1.0  0.17986295524142681  0.10166936248868291  0.2617282879091379  1.0000
  H   H11       1.0  0.17986295502328759  0.3983306381533467  0.7617282880990229  1.0000
  H   H12       1.0  0.8201370451610601  0.8983306366121586  0.738271711792449  1.0000
  H   H13       1.0  0.8993939820637722  0.24999079369264976  0.2848697328415392  1.0000
  H   H14       1.0  0.10060601807916396  0.7499907943346793  0.21513026716810174  1.0000
  H   H15       1.0  0.10060601786102473  0.7500092054081918  0.7151302673579869  1.0000
  H   H16       1.0  0.8993939818402554  0.25000920476616234  0.7848697325337941  1.0000
  H   H17       1.0  0.873936348626311  0.9503524096454675  0.38381842603507776  1.0000
  H   H18       1.0  0.12606365103355746  0.4503524090034379  0.1161815739748721  1.0000
  H   H19       1.0  0.12606365129848598  0.049647589455374175  0.6161815741644483  1.0000
  H   H20       1.0  0.8739363488912394  0.5496475900974037  0.8838184262246539  1.0000
  H   H21       1.0  0.7999760702167166  0.630385457035111  0.46040631188057957  1.0000
  H   H22       1.0  0.2000239299262196  0.13038545857629893  0.03959368812906138  1.0000
  H   H23       1.0  0.20002392970808042  0.36961454206573063  0.5395936883189464  1.0000
  H   H24       1.0  0.7999760699931998  0.8696145427077602  0.9604063115728345  1.0000
  H   H25       1.0  0.7417705189773109  0.7100068112404755  0.5220462361277006  1.0000
  H   H26       1.0  0.2582294812124146  0.21000681059844586  0.9779537642614016  1.0000
  H   H27       1.0  0.2582294809474861  0.2899931878603662  0.47795376407182544  1.0000
  H   H28       1.0  0.7417705191954501  0.7899931885023957  0.022046235937815517  1.0000
  H   H29       1.0  0.9935829540093903  0.8756370421694707  0.5738716897117346  1.0000
  H   H30       1.0  0.006417046174957476  0.3756370415274412  0.9261283101797375  1.0000
  H   H31       1.0  0.006417045910028964  0.12436295693137087  0.4261283099901612  1.0000
  H   H32       1.0  0.9935829537498394  0.6243629575734004  0.07387169001978863  1.0000
  H   H33       1.0  0.8492316699869786  0.4325251322274207  0.6613219513724475  1.0000
  H   H34       1.0  0.15076833019736913  0.9325251328694504  0.8386780485190243  1.0000
  H   H35       1.0  0.1507683299324406  0.5674748668734209  0.3386780483294482  1.0000
  H   H36       1.0  0.8492316697274279  0.06747486841460885  0.16132195168050167  1.0000
  H   H37       1.0  0.7668484935411098  0.23176981948090988  0.5839354038446994  1.0000
  H   H38       1.0  0.23315150616017027  0.7317698201229395  0.9160645960470816  1.0000
  H   H39       1.0  0.2331515063836871  0.7682301818031493  0.4160645963548266  1.0000
  H   H40       1.0  0.766848493759249  0.2682301811611197  0.08393540365481433  1.0000
  H   H41       1.0  0.42728608284554165  0.8403605061847889  0.4649937179481807  1.0000
  H   H42       1.0  0.5727139168143269  0.34036050772597676  0.0350062820617692  1.0000
  H   H43       1.0  0.5727139170792555  0.1596394929160528  0.5350062822513454  1.0000
  H   H44       1.0  0.4272860831050924  0.6596394935580824  0.9649937176401265  1.0000
  H   H45       1.0  0.503995802389698  0.7078911380849857  0.4468463088648537  1.0000
  H   H46       1.0  0.49600419775323823  0.20789113962617367  0.0531536911447872  1.0000
  H   H47       1.0  0.4960041980181667  0.2921088610158559  0.5531536913343634  1.0000
  H   H48       1.0  0.503995802166181  0.7921088616578855  0.9468463085571085  1.0000
  H   H49       1.0  0.35490815557215294  0.12516716476108974  0.4439550540590096  1.0000
  H   H50       1.0  0.6450918445707833  0.6251671654031193  0.056044945950631364  1.0000
  H   H51       1.0  0.6450918443472664  0.8748328343397519  0.5560449456428862  1.0000
  H   H52       1.0  0.3549081553540137  0.3748328358809398  0.9439550542488947  1.0000
  H   H53       1.0  0.28040864177472374  0.7177134272465966  0.30811233416477485  1.0000
  H   H54       1.0  0.7195913583682124  0.21771342660456694  0.19188766584486608  1.0000
  H   H55       1.0  0.7195913586277632  0.28228657403746266  0.691887665536812  1.0000
  H   H56       1.0  0.28040864155658446  0.7822865724962748  0.8081123343546599  1.0000
  H   H57       1.0  0.37821964374822675  0.6860568864477651  0.23686956096682674  1.0000
  H   H58       1.0  0.6217803563947094  0.1860568858057355  0.2631304390428142  1.0000
  H   H59       1.0  0.6217803566596378  0.31394311483629406  0.7631304392323904  1.0000
  H   H60       1.0  0.3782196435247099  0.8139431132951062  0.7368695606590816  1.0000
  H   H61       1.0  0.46804211960055303  0.34858890835765916  0.2717594864049216  1.0000
  H   H62       1.0  0.5319578800593155  0.8485889089996888  0.22824051360502828  1.0000
  H   H63       1.0  0.531957880324244  0.6514110907431825  0.7282405137946044  1.0000
  H   H64       1.0  0.46804211986010374  0.1514110922843704  0.7717594860968675  1.0000
  C   C1        1.0  0.6177899492786342  0.48889349925919645  0.4103176123213487  1.0000
  C   C2        1.0  0.382210050864302  0.9888934977180085  0.0896823876882923  1.0000
  C   C3        1.0  0.38221005112923057  0.5111065020248627  0.5896823878778685  1.0000
  C   C4        1.0  0.617789949060495  0.01110650138283315  0.9103176125112338  1.0000
  C   C5        1.0  0.6786057511377911  0.3232556467177699  0.4116375853376534  1.0000
  C   C6        1.0  0.3213942490051451  0.8232556473597995  0.0883624146719875  1.0000
  C   C7        1.0  0.3213942487870059  0.6767443523830717  0.5883624148618726  1.0000
  C   C8        1.0  0.6786057509142741  0.1767443517410421  0.9116375850299083  1.0000
  C   C9        1.0  0.7318539607906052  0.34617590935508563  0.3668976567148721  1.0000
  C   C10       1.0  0.26814603935233094  0.8461759099971153  0.13310234329476878  1.0000
  C   C11       1.0  0.2681460391288141  0.653824089745756  0.6331023429870237  1.0000
  C   C12       1.0  0.731853960572466  0.1538240912869439  0.8668976569047572  1.0000
  C   C13       1.0  0.7468314361678532  0.512578647795123  0.3101601462982356  1.0000
  C   C14       1.0  0.25316856397508297  0.012578649336310888  0.18983985371140535  1.0000
  C   C15       1.0  0.25316856375694374  0.48742135130571873  0.6898398539012904  1.0000
  C   C16       1.0  0.746831435949714  0.9874213519477483  0.8101601464881205  1.0000
  C   C17       1.0  0.8070991930447482  0.47421540462336864  0.2819041814055824  1.0000
  C   C18       1.0  0.1929008066151201  0.9742154052653982  0.21809581860436744  1.0000
  C   C19       1.0  0.19290080687467098  0.5257845944774729  0.7180958182963134  1.0000
  C   C20       1.0  0.8070991933096768  0.025784596018660937  0.7819041815951586  1.0000
  C   C21       1.0  0.8525332500006615  0.27394321171979047  0.3084766405028046  1.0000
  C   C22       1.0  0.14746675014227464  0.7739432123618201  0.19152335950683633  1.0000
  C   C23       1.0  0.14746674991875777  0.7260567873810511  0.6915233591990912  1.0000
  C   C24       1.0  0.8525332497825224  0.22605678892223913  0.8084766406926898  1.0000
  C   C25       1.0  0.8390039150108352  0.10623366257377706  0.36407564566645023  1.0000
  C   C26       1.0  0.1609960851321012  0.6062336610325891  0.13592435434319075  1.0000
  C   C27       1.0  0.16099608490858433  0.893766338710282  0.6359243540354456  1.0000
  C   C28       1.0  0.8390039147926956  0.3937663380682525  0.8640756458563353  1.0000
  C   C29       1.0  0.7781971562870222  0.1462613864313895  0.3927255382141495  1.0000
  C   C30       1.0  0.22180284385591392  0.6462613848902015  0.10727446179549137  1.0000
  C   C31       1.0  0.22180284363239705  0.8537386148526697  0.6072744614877462  1.0000
  C   C32       1.0  0.778197156068883  0.35373861421064007  0.8927255384040348  1.0000
  C   C33       1.0  0.7801686821548337  0.804489960371896  0.49152537578890104  1.0000
  C   C34       1.0  0.2198313179881026  0.304489961913084  0.008474624220739874  1.0000
  C   C35       1.0  0.21983131776996342  0.1955100387289456  0.508474624410625  1.0000
  C   C36       1.0  0.7801686824143845  0.6955100393709752  0.9915253754808468  1.0000
  C   C37       1.0  0.8320886222771151  0.9321639173442837  0.5359507061846933  1.0000
  C   C38       1.0  0.16791137742416504  0.4321639167022542  0.9640492937070876  1.0000
  C   C39       1.0  0.1679113776476819  0.06783608175655785  0.4640492940148327  1.0000
  C   C40       1.0  0.8320886224952544  0.5678360823985875  0.035950705994808214  1.0000
  C   C41       1.0  0.896632731452331  0.8401890428288707  0.533385419516117  1.0000
  C   C42       1.0  0.10336726824894922  0.34018904218684115  0.9666145803756641  1.0000
  C   C43       1.0  0.10336726846708844  0.15981095627197092  0.46661458018577895  1.0000
  C   C44       1.0  0.8966327316758477  0.6598109569140005  0.03338541982386204  1.0000
  C   C45       1.0  0.9438488739666873  0.9506946988577821  0.5766918757027009  1.0000
  C   C46       1.0  0.056151126217660496  0.4506946982157525  0.9233081241887712  1.0000
  C   C47       1.0  0.05615112595810963  0.049305302426277134  0.4233081244968253  1.0000
  C   C48       1.0  0.9438488737017589  0.5493053008850892  0.07669187551312463  1.0000
  C   C49       1.0  0.9258766184247464  0.16109412491520927  0.6230427253266665  1.0000
  C   C50       1.0  0.07412338127653373  0.6610941233740214  0.8769572745651143  1.0000
  C   C51       1.0  0.07412338150005059  0.83890587636885  0.3769572748728595  1.0000
  C   C52       1.0  0.9258766186428855  0.3389058757268203  0.12304272513678138  1.0000
  C   C53       1.0  0.8624148414376155  0.26392446136143166  0.6258534131345225  1.0000
  C   C54       1.0  0.13758515826904233  0.7639244620034612  0.8741465872548887  1.0000
  C   C55       1.0  0.1375851584871815  0.7360755377394099  0.3741465870650036  1.0000
  C   C56       1.0  0.8624148416557545  0.23607553928059793  0.12585341294463737  1.0000
  C   C57       1.0  0.8162644627069882  0.14772646730969113  0.5824752396726328  1.0000
  C   C58       1.0  0.18373553747735963  0.6477264679517207  0.9175247602188392  1.0000
  C   C59       1.0  0.18373553721780872  0.8522735317911505  0.41752476052689325  1.0000
  C   C60       1.0  0.8162644624420596  0.3522735311491209  0.08247523948305664  1.0000
  C   C61       1.0  0.4714427793730313  0.009322832301828302  0.38032642684809326  1.0000
  C   C62       1.0  0.528557220769905  0.5093228329438579  0.11967357316154764  1.0000
  C   C63       1.0  0.5285572210348334  0.9906771667990133  0.6196735733511238  1.0000
  C   C64       1.0  0.4714427791495144  0.4906771683402013  0.8803264265403482  1.0000
  C   C65       1.0  0.41826995478257184  0.20999114382938072  0.36029237875262954  1.0000
  C   C66       1.0  0.5817300453603643  0.7099911444714103  0.13970762125701133  1.0000
  C   C67       1.0  0.5817300451422251  0.7900088552714608  0.6397076214468964  1.0000
  C   C68       1.0  0.41826995456443256  0.2900088546294313  0.8602923789425148  1.0000
  C   C69       1.0  0.36197264971747883  0.2445894851175197  0.3974690916326791  1.0000
  C   C70       1.0  0.6380273504254574  0.7445894857595493  0.10253090837696184  1.0000
  C   C71       1.0  0.6380273502073182  0.7554105139833219  0.602530908566847  1.0000
  C   C72       1.0  0.36197264997702966  0.2554105133412923  0.897469091324625  1.0000
  C   C73       1.0  0.32045542545795  0.5744074121847416  0.3223166240830493  1.0000
  C   C74       1.0  0.6795445746849862  0.07440741154271197  0.1776833759265916  1.0000
  C   C75       1.0  0.6795445744668469  0.42559258909931763  0.6776833761164767  1.0000
  C   C76       1.0  0.32045542523443316  0.9255925897413472  0.8223166237753041  1.0000
  C   C77       1.0  0.37486801243864004  0.556697227915033  0.2821678701609964  1.0000
  C   C78       1.0  0.6251319872212284  0.056697229456220924  0.21783212984895345  1.0000
  C   C79       1.0  0.6251319874861568  0.44330277118580863  0.7178321300385296  1.0000
  C   C80       1.0  0.37486801270356856  0.9433027718278383  0.7821678703505727  1.0000
  C   C81       1.0  0.4246854353756886  0.37057777982747886  0.3015172937293183  1.0000
  C   C82       1.0  0.5753145647672476  0.8705777804695084  0.19848270628032263  1.0000
  C   C83       1.0  0.5753145650267985  0.6294222192733628  0.6984827059722686  1.0000
  C   C84       1.0  0.42468543515754936  0.12942222081455074  0.8015172939192033  1.0000
  N   N1        1.0  0.7505580204329593  0.020732648097456702  0.4478282843248512  1.0000
  N   N2        1.0  0.24944197970997686  0.5207326487394863  0.05217171568478976  1.0000
  N   N3        1.0  0.24944197948645996  0.979267351003385  0.5521717153770447  1.0000
  N   N4        1.0  0.7505580202148202  0.47926735036135537  0.9478282845147364  1.0000
  N   N5        1.0  0.6912167900233935  0.12783091939740696  0.4597894652096752  1.0000
  N   N6        1.0  0.30878321011954274  0.627830917856219  0.04021053479996577  1.0000
  N   N7        1.0  0.30878321037909356  0.8721690818866522  0.5402105344919117  1.0000
  N   N8        1.0  0.6912167898052543  0.3721690812446226  0.9597894653995602  1.0000
  N   N9        1.0  0.4664667346663052  0.8472531793941813  0.4348931880994734  1.0000
  N   N10       1.0  0.5335332654712532  0.3472531787521517  0.06510681141253731  1.0000
  N   N11       1.0  0.5335332657361819  0.15274682188987787  0.5651068116021135  1.0000
  N   N12       1.0  0.466466734448166  0.6527468203486899  0.9348931882893586  1.0000
  N   N13       1.0  0.31357420157128535  0.4225704352884601  0.37914896536724185  1.0000
  N   N14       1.0  0.6864257985716509  0.9225704359304897  0.1208510346423991  1.0000
  N   N15       1.0  0.686425798348134  0.5774295638123815  0.6208510343346539  1.0000
  N   N16       1.0  0.3135742018362139  0.0774295631703519  0.879148965556818  1.0000
  O   O1        1.0  0.5772432546048026  0.47783501774614967  0.4554627951230375  1.0000
  O   O2        1.0  0.4227567450550658  0.9778350183881794  0.044537204886912374  1.0000
  O   O3        1.0  0.4227567453146167  0.5221649813546919  0.5445372045788583  1.0000
  O   O4        1.0  0.5772432548697312  0.022164982895879853  0.9554627953126136  1.0000
  O   O5        1.0  0.6125871344963715  0.6514444612232774  0.35625536291716897  1.0000
  O   O6        1.0  0.387412865163497  0.15144446276446524  0.1437446370927809  1.0000
  O   O7        1.0  0.3874128654230479  0.3485555378775643  0.6437446367847268  1.0000
  O   O8        1.0  0.6125871347612999  0.848555538519594  0.8562553631067452  1.0000
  O   O9        1.0  0.520794256436673  0.9978420261055195  0.3436010851405248  1.0000
  O   O10       1.0  0.47920574370626323  0.49784202546349  0.15639891486911617  1.0000
  O   O11       1.0  0.4792057434827463  0.0021579751785396283  0.656398914561371  1.0000
  O   O12       1.0  0.5207942562185337  0.5021579736373517  0.8436010853304099  1.0000
  Cl  Cl1       1.0  0.920434712991315  0.5872100356252362  0.4743031700050578  1.0000
  Cl  Cl2       1.0  0.07956528715162121  0.08721003498320663  0.0256968300045831  1.0000
  Cl  Cl3       1.0  0.079565286933482  0.4127899656588229  0.5256968301944682  1.0000
  Cl  Cl4       1.0  0.9204347132562435  0.9127899641176349  0.9743031701946341  1.0000
  Cl  Cl5       1.0  0.9840905641320458  0.29990872442631655  0.6771546639583818  1.0000
  Cl  Cl6       1.0  0.015909435574611885  0.7999087250683461  0.8228453364310294  1.0000
  Cl  Cl7       1.0  0.015909435792751104  0.7000912768577425  0.3228453362411443  1.0000
  Cl  Cl8       1.0  0.984090564350185  0.20009127621571304  0.17715466376849662  1.0000
