data_image0
_chemical_formula_structural       H50C66N12O8Cl8
_chemical_formula_sum              "H50 C66 N12 O8 Cl8"
_cell_length_a       10.468918635155312
_cell_length_b       11.54494821048302
_cell_length_c       13.970493432245176
_cell_angle_alpha    108.10966532419052
_cell_angle_beta     90.17460944225036
_cell_angle_gamma    91.79266665472721

_space_group_name_H-M_alt    "P 1"
_space_group_IT_number       1

loop_
  _space_group_symop_operation_xyz
  'x, y, z'

loop_
  _atom_site_type_symbol
  _atom_site_label
  _atom_site_symmetry_multiplicity
  _atom_site_fract_x
  _atom_site_fract_y
  _atom_site_fract_z
  _atom_site_occupancy
  H   H1        1.0  0.3195252513269049  0.12047998771710597  0.3944229901867054  1.0000
  H   H2        1.0  0.6804747491314352  0.8795200121767535  0.6055770097002845  1.0000
  H   H3        1.0  0.18525096600140312  0.9334533451899143  0.310238556592308  1.0000
  H   H4        1.0  0.814749034482061  0.06654665496233653  0.6897614440474623  1.0000
  H   H5        1.0  0.09464568136254708  0.8989637779092234  0.1394989020577032  1.0000
  H   H6        1.0  0.905354318140899  0.10103622198984646  0.8605010978396912  1.0000
  H   H7        1.0  0.13308866412652687  0.04880225102714037  0.04706810386886356  1.0000
  H   H8        1.0  0.8669113363569374  0.9511977491251106  0.9529318967709068  1.0000
  H   H9        1.0  0.17757331081700226  0.2256025739424925  0.007387499196710598  1.0000
  H   H10       1.0  0.8224266896985237  0.7743974270842147  0.9926125014648787  1.0000
  H   H11       1.0  0.313389073997582  0.32407142038206477  0.01661530694797039  1.0000
  H   H12       1.0  0.68661092649282  0.6759285803862508  0.9833846929608384  1.0000
  H   H13       1.0  0.8335389365741799  0.49614173259416106  0.13179928052204692  1.0000
  H   H14       1.0  0.16646106388416027  0.5038582672996984  0.868200719364943  1.0000
  H   H15       1.0  0.17492542098312194  0.7266400868921191  0.17345361479150576  1.0000
  H   H16       1.0  0.8250745794752182  0.2733599130017403  0.8265463850954842  1.0000
  H   H17       1.0  0.3051238394563377  0.5426337719796166  0.11907514422545548  1.0000
  H   H18       1.0  0.6948761610271265  0.45736622817263434  0.8809248564143148  1.0000
  H   H19       1.0  0.5810500720666746  0.08092237181247437  0.0028040934303377287  1.0000
  H   H20       1.0  0.4189499274367714  0.9190776280865957  0.9971959064670566  1.0000
  H   H21       1.0  0.6322059089213325  0.9017314586355281  0.05833575877898677  1.0000
  H   H22       1.0  0.3677940906072375  0.09826854152193339  0.9416642418711881  1.0000
  H   H23       1.0  0.7305056260129319  0.9305888110831895  0.22576986192000909  1.0000
  H   H24       1.0  0.2694943744454082  0.06941118881066981  0.7742301379669807  1.0000
  H   H25       1.0  0.7731073088577749  0.1378203110668101  0.3464951443649396  1.0000
  H   H26       1.0  0.22689269160056524  0.8621796888270493  0.6535048555220503  1.0000
  H   H27       1.0  0.7856299693928468  0.3398187634657223  0.42241553096050155  1.0000
  H   H28       1.0  0.21437003106549332  0.6601812364281371  0.5775844689264884  1.0000
  H   H29       1.0  0.6808833609893516  0.4610683105326096  0.43524191875468143  1.0000
  H   H30       1.0  0.3191166385140943  0.5389316893664603  0.5647580811427129  1.0000
  H   H31       1.0  0.18842277302572033  0.5082505363223764  0.3384183727489838  1.0000
  H   H32       1.0  0.81157722743262  0.4917494635714831  0.6615816271380061  1.0000
  H   H33       1.0  0.9415834225634432  0.8057395334338102  0.4774573834777821  1.0000
  H   H34       1.0  0.05841657792002117  0.19426046671844063  0.5225426171619881  1.0000
  H   H35       1.0  0.7607897735403014  0.6561534170544789  0.46431372384767056  1.0000
  H   H36       1.0  0.23921022691803875  0.34384658283938047  0.5356862760393193  1.0000
  H   H37       1.0  0.5297111695467294  0.2926785497116924  0.8533434133175194  1.0000
  H   H38       1.0  0.47028883091161083  0.707321450182167  0.1466565865694705  1.0000
  H   H39       1.0  0.47508615657169123  0.4290510337421846  0.7411128840004195  1.0000
  H   H40       1.0  0.5249138438866489  0.5709489661516748  0.25888711588657026  1.0000
  H   H41       1.0  0.5299116063618087  0.06859780952478536  0.7497113207221117  1.0000
  H   H42       1.0  0.47008839314163725  0.9314021903742845  0.2502886791752827  1.0000
  H   H43       1.0  0.45483063251761113  0.06009902736739727  0.5557543442077137  1.0000
  H   H44       1.0  0.5451693669858348  0.9399009725316727  0.44424565568968055  1.0000
  H   H45       1.0  0.44053811958990274  0.2831909308827624  0.562550217738364  1.0000
  H   H46       1.0  0.5594618799135431  0.7168090690163076  0.43744978215903035  1.0000
  H   H47       1.0  0.5900767293322007  0.5139276114755253  0.01522226076018895  1.0000
  H   H48       1.0  0.4099232711261394  0.48607238841833406  0.9847777391268009  1.0000
  H   H49       1.0  0.48512303263546575  0.5544406429297113  0.45679984180046584  1.0000
  H   H50       1.0  0.5148769668679801  0.44555935696935856  0.5432001580969286  1.0000
  C   C1        1.0  0.4174727249891467  0.38519539438609296  0.3855635651141108  1.0000
  C   C2        1.0  0.5825272754691934  0.6148046055077665  0.614436434772879  1.0000
  C   C3        1.0  0.3579599522177702  0.312003328958924  0.29391999350438086  1.0000
  C   C4        1.0  0.6420400482726317  0.6879966718093916  0.706080006404428  1.0000
  C   C5        1.0  0.30228990296369324  0.19083109667966283  0.2683753045331957  1.0000
  C   C6        1.0  0.697710097494647  0.8091689032141965  0.731624695353794  1.0000
  C   C7        1.0  0.28118770261864595  0.10423724534226199  0.3186487437676909  1.0000
  C   C8        1.0  0.7188122969168618  0.8957627554312642  0.6813512561515224  1.0000
  C   C9        1.0  0.20590366365434717  0.00018577139089156488  0.27123264304930855  1.0000
  C   C10       1.0  0.794096336803993  0.999814228502968  0.7287673568376813  1.0000
  C   C11       1.0  0.15401589929695425  0.9805628301281145  0.17406882620314262  1.0000
  C   C12       1.0  0.8459841011613858  0.01943716976574495  0.8259311736838472  1.0000
  C   C13       1.0  0.17482937143802002  0.06394619607531858  0.12164241510744603  1.0000
  C   C14       1.0  0.8251706280654258  0.9360538038237513  0.8783575847899483  1.0000
  C   C15       1.0  0.2477108711822376  0.16977595529951925  0.17064013948505008  1.0000
  C   C16       1.0  0.7522891283212083  0.8302240445995508  0.8293598604123442  1.0000
  C   C17       1.0  0.2294659781997894  0.3052444682931939  0.05756324563286358  1.0000
  C   C18       1.0  0.7705340213287807  0.6947555318642674  0.9424367550173113  1.0000
  C   C19       1.0  0.1456990344234762  0.41445215701361615  0.08851714955619855  1.0000
  C   C20       1.0  0.8543009660348639  0.5855478428802433  0.9114828503307913  1.0000
  C   C21       1.0  0.012115484361663487  0.40391643628775203  0.09308744629630636  1.0000
  C   C22       1.0  0.9878845151669066  0.5960835638697093  0.9069125543538683  1.0000
  C   C23       1.0  0.9366628357678292  0.5060595952276938  0.1265374707741537  1.0000
  C   C24       1.0  0.06333716469051119  0.49394040466616546  0.8734625291128362  1.0000
  C   C25       1.0  0.9968329747016841  0.6212329164002471  0.1551863452675969  1.0000
  C   C26       1.0  0.003167024801762027  0.3787670834988228  0.8448136546297974  1.0000
  C   C27       1.0  0.1291707842369524  0.6361908944136313  0.15138429059894423  1.0000
  C   C28       1.0  0.8708292162213878  0.3638091054802281  0.8486157092880456  1.0000
  C   C29       1.0  0.20135234366404667  0.5322943310511858  0.11895427626746034  1.0000
  C   C30       1.0  0.7986476568263552  0.4677056697171297  0.8810457236413485  1.0000
  C   C31       1.0  0.5933751524938643  0.3714083106707937  0.058650048171583286  1.0000
  C   C32       1.0  0.406624847964476  0.6285916892230659  0.9413499517154067  1.0000
  C   C33       1.0  0.6339257270229983  0.333103670821599  0.14103727287651432  1.0000
  C   C34       1.0  0.36607427343534177  0.6668963290722605  0.8589627270104756  1.0000
  C   C35       1.0  0.6446690293391121  0.21080373798793578  0.14447724104186957  1.0000
  C   C36       1.0  0.3553309711192281  0.7891962619059236  0.8555227588451203  1.0000
  C   C37       1.0  0.6209178697829691  0.09347931825323423  0.07746698734477994  1.0000
  C   C38       1.0  0.3790821297204768  0.9065206816458357  0.9225330125526143  1.0000
  C   C39       1.0  0.65160509972317  0.9939534198533923  0.10871374606793467  1.0000
  C   C40       1.0  0.34839489978027594  0.006046580045677743  0.8912862538294597  1.0000
  C   C41       1.0  0.7064865415064121  0.01040818171752014  0.20439891560599266  1.0000
  C   C42       1.0  0.29351345799703377  0.9895918181815498  0.7956010842914016  1.0000
  C   C43       1.0  0.729697741899234  0.12596257312478779  0.2729956109787587  1.0000
  C   C44       1.0  0.2703022585591062  0.8740374267690716  0.7270043889082312  1.0000
  C   C45       1.0  0.6971688298347242  0.22541254625433965  0.24169026568735302  1.0000
  C   C46       1.0  0.30283116966872176  0.7745874536447304  0.7583097342100413  1.0000
  C   C47       1.0  0.7589201982365485  0.4109938131272712  0.3901286373877379  1.0000
  C   C48       1.0  0.24107980222179162  0.5890061867665882  0.6098713624992519  1.0000
  C   C49       1.0  0.869923813099816  0.4988808340638768  0.39449810001313695  1.0000
  C   C50       1.0  0.13007618739058585  0.5011191667044389  0.6055018998956719  1.0000
  C   C51       1.0  0.9918708098385636  0.4593395803780877  0.3606081186725606  1.0000
  C   C52       1.0  0.008129190619776426  0.5406604195157718  0.6393918812144292  1.0000
  C   C53       1.0  0.09509428101284129  0.5410046044631729  0.3667231086415477  1.0000
  C   C54       1.0  0.9049057184906045  0.458995395435897  0.6332768912558465  1.0000
  C   C55       1.0  0.07458390892527014  0.6652830613417237  0.40872217897323837  1.0000
  C   C56       1.0  0.92541609153307  0.3347169385521358  0.5912778209137515  1.0000
  C   C57       1.0  0.955143498855931  0.7085176317195226  0.4435795560950418  1.0000
  C   C58       1.0  0.04485650160240929  0.29148236817433687  0.556420443791948  1.0000
  C   C59       1.0  0.8542987703202495  0.6243121092244553  0.43563827579110176  1.0000
  C   C60       1.0  0.14570123016321496  0.3756878909277956  0.5643617248486686  1.0000
  C   C61       1.0  0.48208602986128596  0.3306947214422933  0.717943014826182  1.0000
  C   C62       1.0  0.5179139705970541  0.6693052784515662  0.28205698506080795  1.0000
  C   C63       1.0  0.5087294946539344  0.14049578996677103  0.7182687585397901  1.0000
  C   C64       1.0  0.4912705058044058  0.8595042099270883  0.2817312413471997  1.0000
  C   C65       1.0  0.47440415767498345  0.1364209165501368  0.6226567587867091  1.0000
  C   C66       1.0  0.5255958418284625  0.8635790833489331  0.3773432411106852  1.0000
  N   N1        1.0  0.2746016383515473  0.2734951246685449  0.1446328315795039  1.0000
  N   N2        1.0  0.7253983611518987  0.7265048752305252  0.8553671683178905  1.0000
  N   N3        1.0  0.3391871848523969  0.36050740311959206  0.21793664078058522  1.0000
  N   N4        1.0  0.6608128146761731  0.6394925970378694  0.7820633598695895  1.0000
  N   N5        1.0  0.6738954222658283  0.41565299293188757  0.22979626719087196  1.0000
  N   N6        1.0  0.3261045772376176  0.5843470069671823  0.7702037327065223  1.0000
  N   N7        1.0  0.7109525639658439  0.34915846508622106  0.28876754121964676  1.0000
  N   N8        1.0  0.28904743553760204  0.6508415348128488  0.7112324586777476  1.0000
  N   N9        1.0  0.45905107344561813  0.25549913979175004  0.6245391847953102  1.0000
  N   N10       1.0  0.5409489270127221  0.7445008601021094  0.37546081509167956  1.0000
  N   N11       1.0  0.5118717190937089  0.26171663443726245  0.7755849044653139  1.0000
  N   N12       1.0  0.48812828040973716  0.7382833654618075  0.2244150954320804  1.0000
  O   O1        1.0  0.44163346964687317  0.5011506450123848  0.390518417522099  1.0000
  O   O2        1.0  0.558366530811467  0.4988493548814745  0.6094815823648908  1.0000
  O   O3        1.0  0.44571086181595887  0.3468553595831203  0.45988766747360416  1.0000
  O   O4        1.0  0.5542891386423813  0.6531446403107392  0.5401123324133857  1.0000
  O   O5        1.0  0.599044810737259  0.49649392682686044  0.07910783873980597  1.0000
  O   O6        1.0  0.4009551887661868  0.5035060730722095  0.9208921611575883  1.0000
  O   O7        1.0  0.552086483082074  0.3026317959914068  0.9749656998407537  1.0000
  O   O8        1.0  0.4479135174083278  0.6973682047769088  0.025034300068055206  1.0000
  Cl  Cl1       1.0  0.935489945403655  0.26155568406424123  0.0574013627297824  1.0000
  Cl  Cl2       1.0  0.06451005412491512  0.7384443160932201  0.9425986379203924  1.0000
  Cl  Cl3       1.0  0.9035841947768923  0.7488592764689279  0.19595646107422288  1.0000
  Cl  Cl4       1.0  0.09641580472655358  0.25114072343014204  0.8040435388231716  1.0000
  Cl  Cl5       1.0  0.016608553043012234  0.3052103984366982  0.3109572753349032  1.0000
  Cl  Cl6       1.0  0.9833914474404523  0.6947896017155527  0.6890427253048671  1.0000
  Cl  Cl7       1.0  0.2028175939626131  0.7688459519068536  0.41948324585318886  1.0000
  Cl  Cl8       1.0  0.7971824064957271  0.2311540479870057  0.580516754033801  1.0000
