data_image0
_chemical_formula_structural       H76C56N20O8S4
_chemical_formula_sum              "H76 C56 N20 O8 S4"
_cell_length_a       6.178520792896652
_cell_length_b       13.498606614726263
_cell_length_c       19.48360085568478
_cell_angle_alpha    90.0
_cell_angle_beta     94.95091379022892
_cell_angle_gamma    90.0

_space_group_name_H-M_alt    "P 1"
_space_group_IT_number       1

loop_
  _space_group_symop_operation_xyz
  'x, y, z'

loop_
  _atom_site_type_symbol
  _atom_site_label
  _atom_site_symmetry_multiplicity
  _atom_site_fract_x
  _atom_site_fract_y
  _atom_site_fract_z
  _atom_site_occupancy
  H   H1        1.0  0.41194359380046286  0.11817238812336099  0.04882153528181763  1.0000
  H   H2        1.0  0.5880564051952002  0.6181723883187048  0.45117846484826196  1.0000
  H   H3        1.0  0.5880564053419627  0.8818276115265092  0.9511784647417579  1.0000
  H   H4        1.0  0.4119435939472253  0.38182761133116555  0.5488215351753136  1.0000
  H   H5        1.0  0.5036576089212205  0.5820383143419225  0.25860981123849613  1.0000
  H   H6        1.0  0.49634239169733707  0.08203831488739602  0.24139018842221677  1.0000
  H   H7        1.0  0.4963423918457758  0.41796168530794775  0.7413901888290105  1.0000
  H   H8        1.0  0.5036576090696593  0.9179616855032915  0.7586098116452898  1.0000
  H   H9        1.0  0.2442027724007966  0.5990892779390766  0.2799092395328403  1.0000
  H   H10       1.0  0.7557972265948665  0.09908927848455003  0.2200907605972393  1.0000
  H   H11       1.0  0.7557972267416287  0.40091072171079367  0.7200907604907353  1.0000
  H   H12       1.0  0.24420277254755907  0.9009107219061375  0.7799092394263363  1.0000
  H   H13       1.0  0.9599525735606784  0.4791134607141191  0.2541984729297677  1.0000
  H   H14       1.0  0.04004742705787914  0.9791134609094628  0.24580152673094527  1.0000
  H   H15       1.0  0.040047427206317855  0.5208865389357512  0.7458015271377391  1.0000
  H   H16       1.0  0.9599525720845462  0.020886538740407423  0.7541984732926305  1.0000
  H   H17       1.0  0.8557152519757023  0.3145375112545348  0.20391366651408127  1.0000
  H   H18       1.0  0.14428474701828442  0.8145375107090613  0.29608633310270055  1.0000
  H   H19       1.0  0.14428474716504686  0.6854624891361527  0.7960863329961966  1.0000
  H   H20       1.0  0.8557152521241411  0.18546248894080894  0.7039136669208751  1.0000
  H   H21       1.0  0.5020660402902103  0.27713992390286896  0.14051881103988845  1.0000
  H   H22       1.0  0.4979339603283472  0.7771399240982126  0.35948118862082445  1.0000
  H   H23       1.0  0.49793396047678595  0.7228600757470013  0.8594811890276183  1.0000
  H   H24       1.0  0.502066040438649  0.22286007629247478  0.6405188114466822  1.0000
  H   H25       1.0  0.6047902093728446  0.44176799059351857  0.1881358759637298  1.0000
  H   H26       1.0  0.3952097912473893  0.9417679907888624  0.3118641242102809  1.0000
  H   H27       1.0  0.39520978976958093  0.5582320090563516  0.8118641240598458  1.0000
  H   H28       1.0  0.6047902095196069  0.05823200960182513  0.6881358758572258  1.0000
  H   H29       1.0  0.4372202602036485  0.32630117801898184  0.8555177511522739  1.0000
  H   H30       1.0  0.5627797390855395  0.8263011782143255  0.6444822487647975  1.0000
  H   H31       1.0  0.562779738938777  0.6736988216308885  0.14448224887130157  1.0000
  H   H32       1.0  0.437220260056886  0.1736988221763619  0.35551775125877805  1.0000
  H   H33       1.0  0.19493711051019152  0.3474759531760099  0.8013153597863781  1.0000
  H   H34       1.0  0.8050628887789965  0.8474759533713536  0.6986846401306934  1.0000
  H   H35       1.0  0.805062888632234  0.6525240464738605  0.19868464023719748  1.0000
  H   H36       1.0  0.19493711036342906  0.15252404627851668  0.3013153598928821  1.0000
  H   H37       1.0  0.2851543639802706  0.2246705461207709  0.8207093236728  1.0000
  H   H38       1.0  0.7148456369334881  0.7246705455752974  0.6792906762882027  1.0000
  H   H39       1.0  0.7148456367867256  0.7753294542699165  0.17929067639470672  1.0000
  H   H40       1.0  0.2851543638335081  0.2753294540745728  0.32070932377930395  1.0000
  H   H41       1.0  0.9202122213731301  0.4162281656441869  0.872264015859679  1.0000
  H   H42       1.0  0.07978777791605801  0.9162281650987134  0.6277359840573924  1.0000
  H   H43       1.0  0.07978777776929556  0.5837718347465006  0.12773598416389642  1.0000
  H   H44       1.0  0.9202122212246913  0.08377183455115685  0.3722640154528854  1.0000
  H   H45       1.0  0.5361852846214558  0.37733280518326223  0.9947568215603189  1.0000
  H   H46       1.0  0.4638147146677321  0.8773328046377887  0.5052431783567528  1.0000
  H   H47       1.0  0.46381471614554043  0.6226671952074253  0.0052431785071879  1.0000
  H   H48       1.0  0.5361852844746934  0.12266719501208151  0.49475682166682283  1.0000
  H   H49       1.0  0.6408676536932143  0.4732108425940328  0.9433872481023873  1.0000
  H   H50       1.0  0.3591323472222208  0.9732108427893766  0.5566127523719132  1.0000
  H   H51       1.0  0.35913234707378205  0.5267891570558374  0.056612751965119376  1.0000
  H   H52       1.0  0.6408676535447755  0.026789157601310926  0.4433872476955935  1.0000
  H   H53       1.0  0.7229245907362075  0.46419129017095706  0.03316591237627673  1.0000
  H   H54       1.0  0.27707540988235  0.9641912903663009  0.46683408728443626  1.0000
  H   H55       1.0  0.2770754100307887  0.5358087094789131  0.9668340876912298  1.0000
  H   H56       1.0  0.7229245892583992  0.03580871002438663  0.5331659122258416  1.0000
  H   H57       1.0  0.6880800000250641  0.12176523747324061  0.072342259527372  1.0000
  H   H58       1.0  0.3119200005951698  0.6217652369277672  0.42765774064663864  1.0000
  H   H59       1.0  0.31192000074193227  0.878234762917447  0.9276577405401346  1.0000
  H   H60       1.0  0.6880800001718264  0.3782347627221031  0.572342259420868  1.0000
  H   H61       1.0  0.5171474099941382  0.9875409188869325  0.12552465849628502  1.0000
  H   H62       1.0  0.4828525906260956  0.48754091869158883  0.37447534167772567  1.0000
  H   H63       1.0  0.48285259077285814  0.01245908076293773  0.8744753415712219  1.0000
  H   H64       1.0  0.5171474101409006  0.5124590809582815  0.6255246583897811  1.0000
  H   H65       1.0  0.7190678421683137  0.9457498269541865  0.07170459344560325  1.0000
  H   H66       1.0  0.2809321568273494  0.44574982675884267  0.42829540668447635  1.0000
  H   H67       1.0  0.2809321569741119  0.05425017343650104  0.9282954065779724  1.0000
  H   H68       1.0  0.719067842315076  0.5542501728910275  0.5717045933390993  1.0000
  H   H69       1.0  0.7758235215309783  0.052117672592406794  0.9648166780492956  1.0000
  H   H70       1.0  0.22417647938445676  0.5521176727877505  0.535183322425005  1.0000
  H   H71       1.0  0.22417647923601805  0.9478823270574636  0.03518332201821118  1.0000
  H   H72       1.0  0.7758235213825395  0.44788232760293695  0.4648166776425018  1.0000
  H   H73       1.0  0.6019740927453661  0.1578790589893205  0.9501866529062442  1.0000
  H   H74       1.0  0.39802590816839273  0.6578790584438471  0.5498133470547586  1.0000
  H   H75       1.0  0.3980259080216303  0.8421209414013668  0.049813347161262525  1.0000
  H   H76       1.0  0.6019740925986035  0.3421209412060232  0.45018665301274813  1.0000
  C   C1        1.0  0.28929063672517347  0.47287741855046594  0.22400344512460332  1.0000
  C   C2        1.0  0.7107093638950602  0.9728774187458097  0.27599655504940734  1.0000
  C   C3        1.0  0.7107093640418227  0.5271225818402214  0.7759965549429033  1.0000
  C   C4        1.0  0.28929063524736515  0.027122581644877755  0.7240034449741682  1.0000
  C   C5        1.0  0.07699837054260172  0.4352045338954514  0.2283206294899807  1.0000
  C   C6        1.0  0.923001628451385  0.9352045340907951  0.27167937012680116  1.0000
  C   C7        1.0  0.9230016285998237  0.564795465754419  0.7716793705335949  1.0000
  C   C8        1.0  0.07699837068936419  0.06479546629989238  0.7283206293834766  1.0000
  C   C9        1.0  0.019143190076505546  0.34322252305253603  0.20083384689776418  1.0000
  C   C10       1.0  0.9808568089191575  0.8432225232478797  0.2991661532323154  1.0000
  C   C11       1.0  0.98085680906592  0.6567774765973342  0.7991661531258114  1.0000
  C   C12       1.0  0.01914319022326801  0.15677747640199052  0.7008338467912603  1.0000
  C   C13       1.0  0.1709921896455907  0.2857937363543379  0.16940699207105886  1.0000
  C   C14       1.0  0.8290078093483961  0.7857937365496817  0.33059300754572296  1.0000
  C   C15       1.0  0.8290078094968348  0.7142062632955324  0.8305930079525168  1.0000
  C   C16       1.0  0.17099218979235317  0.2142062631001886  0.6694069919645549  1.0000
  C   C17       1.0  0.3827264955734627  0.3213737827775027  0.16511208995323007  1.0000
  C   C18       1.0  0.6172735034222002  0.8213737822320294  0.33488791017684955  1.0000
  C   C19       1.0  0.6172735035689628  0.6786262176131848  0.8348879100703455  1.0000
  C   C20       1.0  0.3827264957202252  0.178626217417841  0.6651120898467261  1.0000
  C   C21       1.0  0.440833187631442  0.4136852179919046  0.19190442475274674  1.0000
  C   C22       1.0  0.5591668113625448  0.9136852181872482  0.3080955748640351  1.0000
  C   C23       1.0  0.5591668115093071  0.5863147816579656  0.8080955747575311  1.0000
  C   C24       1.0  0.4408331877798808  0.08631478220343912  0.6919044251595405  1.0000
  C   C25       1.0  0.09702554577377903  0.23065372070353785  0.010373259833616448  1.0000
  C   C26       1.0  0.9029744548464547  0.7306537201580643  0.4896267403403942  1.0000
  C   C27       1.0  0.9029744549932173  0.7693462796871496  0.9896267402338902  1.0000
  C   C28       1.0  0.09702554592054148  0.2693462794918059  0.5103732597271124  1.0000
  C   C29       1.0  0.1449188444733483  0.2976740277486399  0.9042228372890808  1.0000
  C   C30       1.0  0.8550811564404105  0.7976740279439837  0.5957771626719217  1.0000
  C   C31       1.0  0.855081156293648  0.7023259726420477  0.09577716277842573  1.0000
  C   C32       1.0  0.14491884432658586  0.20232597244670383  0.40422283739558496  1.0000
  C   C33       1.0  0.2707319579204483  0.29954010776111467  0.8419268505702937  1.0000
  C   C34       1.0  0.7292680413687398  0.7995401072156413  0.658073149346778  1.0000
  C   C35       1.0  0.7292680412219772  0.7004598926295729  0.15807314945328188  1.0000
  C   C36       1.0  0.2707319577736858  0.2004598924342291  0.3419268506767977  1.0000
  C   C37       1.0  0.9717157730380017  0.36242277144834095  0.9118614228030396  1.0000
  C   C38       1.0  0.028284227875756938  0.8624227716436847  0.5881385771579631  1.0000
  C   C39       1.0  0.02828422772899447  0.6375772282015293  0.08813857726446714  1.0000
  C   C40       1.0  0.9717157728912394  0.13757722874700276  0.4118614229095436  1.0000
  C   C41       1.0  0.8655832629748543  0.35544035891568926  0.9721160642462294  1.0000
  C   C42       1.0  0.1344167379389044  0.8554403591110329  0.5278839357147732  1.0000
  C   C43       1.0  0.13441673779214192  0.644559640734181  0.027883935821277243  1.0000
  C   C44       1.0  0.865583262828092  0.1445596405388373  0.4721160643527334  1.0000
  C   C45       1.0  0.6805952323933424  0.42150250187992316  0.985886975748068  1.0000
  C   C46       1.0  0.31940476852209254  0.921502502075267  0.5141130247262324  1.0000
  C   C47       1.0  0.31940476837365384  0.5784974977699471  0.01411302431943872  1.0000
  C   C48       1.0  0.6805952322449037  0.07849749831542058  0.48588697534127423  1.0000
  C   C49       1.0  0.5585680284928906  0.9805362596136674  0.07219641584220664  1.0000
  C   C50       1.0  0.4414319705027725  0.4805362601591409  0.42780358428787296  1.0000
  C   C51       1.0  0.441431970649535  0.019463740036202836  0.927803584181369  1.0000
  C   C52       1.0  0.558568028639653  0.5194637402315465  0.5721964157357027  1.0000
  C   C53       1.0  0.6114686568907369  0.08139655976057061  0.9689121824382162  1.0000
  C   C54       1.0  0.388531342398451  0.5813965599559143  0.5310878174788554  1.0000
  C   C55       1.0  0.3885313422516885  0.9186034398892996  0.031087817585359417  1.0000
  C   C56       1.0  0.6114686583685452  0.4186034396939559  0.46891218258865125  1.0000
  N   N1        1.0  0.17258570768540804  0.1624078456815194  0.059558577483926706  1.0000
  N   N2        1.0  0.8274142929348257  0.6624078458768631  0.440441422690084  1.0000
  N   N3        1.0  0.8274142930815882  0.8375921539683508  0.9404414225835799  1.0000
  N   N4        1.0  0.1725857062075997  0.33759215377300716  0.5595585773334917  1.0000
  N   N5        1.0  0.2092156037741564  0.23194853730934456  0.9536771354086959  1.0000
  N   N6        1.0  0.7907843971396024  0.7319485375046882  0.5463228645523068  1.0000
  N   N7        1.0  0.7907843969928399  0.7680514630813429  0.046322864658810796  1.0000
  N   N8        1.0  0.20921560362739391  0.2680514628859992  0.45367713551519984  1.0000
  N   N9        1.0  0.9254926378281467  0.2885211608249374  0.021191049251256342  1.0000
  N   N10       1.0  0.07450736279208706  0.7885211610202811  0.47880895092275433  1.0000
  N   N11       1.0  0.0745073629388495  0.7114788388249329  0.9788089508162503  1.0000
  N   N12       1.0  0.9254926363503385  0.21147883862958913  0.5211910491008211  1.0000
  N   N13       1.0  0.3434950862362704  0.5656816320337554  0.2475432757388042  1.0000
  N   N14       1.0  0.6565049143839634  0.06568163183841175  0.2524567244352065  1.0000
  N   N15       1.0  0.6565049145307258  0.43431836761611475  0.7524567243287025  1.0000
  N   N16       1.0  0.34349508638303283  0.9343183678114586  0.7475432756323002  1.0000
  N   N17       1.0  0.5675475332519201  0.08230518835832672  0.04279638456223371  1.0000
  N   N18       1.0  0.4324524673683138  0.5823051885536704  0.45720361561177697  1.0000
  N   N19       1.0  0.43245246751507616  0.9176948112915435  0.9572036155052731  1.0000
  N   N20       1.0  0.5675475333986826  0.4176948110961998  0.5427963844557298  1.0000
  O   O1        1.0  0.23235428977650846  0.09287333320998649  0.17468611617136418  1.0000
  O   O2        1.0  0.7676457108437255  0.5928733334053302  0.3253138840026465  1.0000
  O   O3        1.0  0.767645709365917  0.9071266664398838  0.8253138838522115  1.0000
  O   O4        1.0  0.23235428992327092  0.4071266662445401  0.6746861160648602  1.0000
  O   O5        1.0  0.8657841968737675  0.1558895373470866  0.14117986707802682  1.0000
  O   O6        1.0  0.1342158021218955  0.6558895375424304  0.3588201330520528  1.0000
  O   O7        1.0  0.13421580226865798  0.8441104623027836  0.8588201329455486  1.0000
  O   O8        1.0  0.86578419702053  0.34411046284825714  0.6411798669715228  1.0000
  S   S1        1.0  0.1014529827198924  0.1679940918884231  0.13604806602893948  1.0000
  S   S2        1.0  0.8985470179003415  0.6679940913429496  0.3639519341450712  1.0000
  S   S3        1.0  0.8985470180471039  0.8320059085022644  0.8639519340385672  1.0000
  S   S4        1.0  0.10145298124208407  0.3320059083069206  0.6360480658785044  1.0000
