data_image0
_chemical_formula_structural       H48C72N8F24I24
_chemical_formula_sum              "H48 C72 N8 F24 I24"
_cell_length_a       15.633802408481259
_cell_length_b       9.660479417361845
_cell_length_c       18.112041305017243
_cell_angle_alpha    90.0
_cell_angle_beta     107.90533255447107
_cell_angle_gamma    90.0

_space_group_name_H-M_alt    "P 1"
_space_group_IT_number       1

loop_
  _space_group_symop_operation_xyz
  'x, y, z'

loop_
  _atom_site_type_symbol
  _atom_site_label
  _atom_site_symmetry_multiplicity
  _atom_site_fract_x
  _atom_site_fract_y
  _atom_site_fract_z
  _atom_site_occupancy
  H   H1        1.0  0.15644643947392126  0.20753024600382583  0.7639711157887884  1.0000
  H   H2        1.0  0.8435535604868215  0.20753024600382583  0.7360288839397895  1.0000
  H   H3        1.0  0.6564464400298708  0.7075302461403695  0.7639711162123689  1.0000
  H   H4        1.0  0.3435535601356609  0.7075302461403695  0.7360288840964279  1.0000
  H   H5        1.0  0.8435535603754492  0.7924697542692616  0.23602888411811118  1.0000
  H   H6        1.0  0.1564464393625489  0.7924697542692616  0.26397111596711  1.0000
  H   H7        1.0  0.34355356066453085  0.29246975413271786  0.2360288842764493  1.0000
  H   H8        1.0  0.6564464397137096  0.29246975413271786  0.26397111581047167  1.0000
  H   H9        1.0  0.10488693420487565  0.04514806265371741  0.7335978840966706  1.0000
  H   H10       1.0  0.8951130657558671  0.04514806265371741  0.7664021156319073  1.0000
  H   H11       1.0  0.6048869347608253  0.5451480627902611  0.7335978845202512  1.0000
  H   H12       1.0  0.3951130654047065  0.5451480627902611  0.7664021157885457  1.0000
  H   H13       1.0  0.8951130656444949  0.9548519365842246  0.26640211581022893  1.0000
  H   H14       1.0  0.1048869340935033  0.9548519365842246  0.23359788427499226  1.0000
  H   H15       1.0  0.3951130659335764  0.4548519364476809  0.266402115968567  1.0000
  H   H16       1.0  0.604886934444664  0.4548519364476809  0.2335978841183539  1.0000
  H   H17       1.0  0.05037134427679295  0.03633510562313869  0.8413227123022908  1.0000
  H   H18       1.0  0.9496286556839498  0.03633510562313869  0.6586772874262871  1.0000
  H   H19       1.0  0.5503713441925003  0.5363351057596825  0.8413227127241717  1.0000
  H   H20       1.0  0.4496286553327892  0.5363351057596825  0.6586772875829254  1.0000
  H   H21       1.0  0.9496286555725776  0.9636648946499488  0.15867728760460872  1.0000
  H   H22       1.0  0.05037134416542058  0.9636648946499488  0.34132271248061247  1.0000
  H   H23       1.0  0.44962865586165923  0.46366489451340503  0.15867728776294682  1.0000
  H   H24       1.0  0.5503713445165813  0.46366489451340503  0.34132271232397415  1.0000
  H   H25       1.0  0.1105385921732468  0.19093392991294353  0.8765038582134713  1.0000
  H   H26       1.0  0.889461407787496  0.19093392991294353  0.6234961415151067  1.0000
  H   H27       1.0  0.6105385920889542  0.6909339300494872  0.8765038586353522  1.0000
  H   H28       1.0  0.38946140743633534  0.6909339300494872  0.6234961416717448  1.0000
  H   H29       1.0  0.8894614076761237  0.8090660703601438  0.12349614169342824  1.0000
  H   H30       1.0  0.11053859206187443  0.8090660703601438  0.3765038583917929  1.0000
  H   H31       1.0  0.3894614077604162  0.30906607022360016  0.12349614127154733  1.0000
  H   H32       1.0  0.6105385924130351  0.30906607022360016  0.3765038582351546  1.0000
  H   H33       1.0  0.9603850234834599  0.41082733874131333  0.6640013151222507  1.0000
  H   H34       1.0  0.03961497647728284  0.41082733874131333  0.8359986846063272  1.0000
  H   H35       1.0  0.4603850231322993  0.9108273378427116  0.6640013152788891  1.0000
  H   H36       1.0  0.5396149770332326  0.9108273378427116  0.8359986850299078  1.0000
  H   H37       1.0  0.03961497700615286  0.5891726615317741  0.3359986847863486  1.0000
  H   H38       1.0  0.9603850233720875  0.5891726615317741  0.16400131530057233  1.0000
  H   H39       1.0  0.5396149767170711  0.08917266139523036  0.3359986846280105  1.0000
  H   H40       1.0  0.46038502366116923  0.08917266139523036  0.1640013154589104  1.0000
  H   H41       1.0  0.07591251851101427  0.4177592680076445  0.7187984644189197  1.0000
  H   H42       1.0  0.9240874810142752  0.4177592680076445  0.7812015358881774  1.0000
  H   H43       1.0  0.575912518862175  0.9177592681441881  0.7187984642622814  1.0000
  H   H44       1.0  0.4240874810985678  0.9177592681441881  0.7812015354662966  1.0000
  H   H45       1.0  0.9240874813383562  0.5822407312302976  0.2812015354879798  1.0000
  H   H46       1.0  0.07591251903988427  0.5822407312302976  0.2187984645989411  1.0000
  H   H47       1.0  0.42408748098719545  0.08224073109375392  0.2812015356446182  1.0000
  H   H48       1.0  0.5759125187508026  0.08224073109375392  0.21879846444060302  1.0000
  C   C1        1.0  0.15321069297524773  0.12708548995959368  0.48471139606674835  1.0000
  C   C2        1.0  0.8467893074029927  0.12708548995959368  0.015288604020172573  1.0000
  C   C3        1.0  0.6532106926861662  0.6270854900961373  0.4847113959084103  1.0000
  C   C4        1.0  0.3467893070518321  0.6270854900961373  0.015288604176810914  1.0000
  C   C5        1.0  0.8467893070789118  0.8729145092783485  0.5152886044203702  1.0000
  C   C6        1.0  0.15321069308662005  0.8729145092783485  0.9847113958884266  1.0000
  C   C7        1.0  0.34678930716320433  0.37291451017695004  0.5152886039984893  1.0000
  C   C8        1.0  0.6532106927975384  0.37291451017695004  0.9847113957300886  1.0000
  C   C9        1.0  0.2237046510383007  0.03199516780135206  0.49969709990942246  1.0000
  C   C10       1.0  0.7762953486996974  0.03199516780135206  0.00030290017579872827  1.0000
  C   C11       1.0  0.7237046507492191  0.5319951669027505  0.4996970997510844  1.0000
  C   C12       1.0  0.276295348988779  0.5319951669027505  0.0003029003341367849  1.0000
  C   C13       1.0  0.7762953488110697  0.9680048324717353  0.500302899997477  1.0000
  C   C14       1.0  0.22370465114967297  0.9680048324717353  0.9996970997311007  1.0000
  C   C15       1.0  0.27629534910015136  0.4680048323351917  0.5003029001558151  1.0000
  C   C16       1.0  0.7237046510653804  0.4680048323351917  0.9996971001529817  1.0000
  C   C17       1.0  0.2699021990998794  0.0027832397170349356  0.4465734372755543  1.0000
  C   C18       1.0  0.730097801278361  0.0027832397170349356  0.053426562811366596  1.0000
  C   C19       1.0  0.7699021990155868  0.5027832398535786  0.4465734376974352  1.0000
  C   C20       1.0  0.2300978007224113  0.5027832398535786  0.05342656238778598  1.0000
  C   C21       1.0  0.7300978013897332  0.9972167605560524  0.5534265626330449  1.0000
  C   C22       1.0  0.26990219877579846  0.9972167605560524  0.9465734376757519  1.0000
  C   C23       1.0  0.2300978010385727  0.4972167604195088  0.5534265627896834  1.0000
  C   C24       1.0  0.7699021991269592  0.4972167604195088  0.9465734375191135  1.0000
  C   C25       1.0  0.24280983867123848  0.07386892608222934  0.3761796238861521  1.0000
  C   C26       1.0  0.7571901617070019  0.07386892608222934  0.12382037620076877  1.0000
  C   C27       1.0  0.7428098383821569  0.5738689262187731  0.3761796237278141  1.0000
  C   C28       1.0  0.2571901611510522  0.5738689262187731  0.12382037577718816  1.0000
  C   C29       1.0  0.7571901618183743  0.9261310731557127  0.6238203760224471  1.0000
  C   C30       1.0  0.2428098381423685  0.9261310731557127  0.8761796237061308  1.0000
  C   C31       1.0  0.25719016146721363  0.426131073019169  0.6238203761790855  1.0000
  C   C32       1.0  0.7428098386983182  0.426131073019169  0.8761796241297114  1.0000
  C   C33       1.0  0.1738752389329643  0.1718613485181874  0.358185186529711  1.0000
  C   C34       1.0  0.8261247614452761  0.1718613485181874  0.14181481355720998  1.0000
  C   C35       1.0  0.6738752386438827  0.6718613476195858  0.35818518637137287  1.0000
  C   C36       1.0  0.3261247617343578  0.6718613476195858  0.14181481371554802  1.0000
  C   C37       1.0  0.8261247615566485  0.8281386517548999  0.6418148133788883  1.0000
  C   C38       1.0  0.17387523840409427  0.8281386517548999  0.8581851863496895  1.0000
  C   C39       1.0  0.32612476120548783  0.32813865161835626  0.6418148135355267  1.0000
  C   C40       1.0  0.6738752387552549  0.32813865161835626  0.8581851861930512  1.0000
  C   C41       1.0  0.13071540478349572  0.1967641509161348  0.4139573746042536  1.0000
  C   C42       1.0  0.8692845947497133  0.1967641509161348  0.08604262490074864  1.0000
  C   C43       1.0  0.6307154046992032  0.6967641500175331  0.4139573750261345  1.0000
  C   C44       1.0  0.369284595038795  0.6967641500175331  0.08604262505908669  1.0000
  C   C45       1.0  0.8692845950658747  0.8032358493569526  0.5860426253026461  1.0000
  C   C46       1.0  0.1307154050996571  0.8032358493569526  0.9139573750061509  1.0000
  C   C47       1.0  0.36928459515016726  0.3032358492204089  0.586042624880765  1.0000
  C   C48       1.0  0.6307154048105755  0.3032358492204089  0.9139573748478128  1.0000
  C   C49       1.0  0.09348280904603731  0.14922856907174986  0.7531180604835903  1.0000
  C   C50       1.0  0.9065171909147055  0.14922856907174986  0.7468819392449876  1.0000
  C   C51       1.0  0.5934828087569558  0.6492285692082935  0.7531180603252522  1.0000
  C   C52       1.0  0.4065171912037871  0.6492285692082935  0.7468819394033257  1.0000
  C   C53       1.0  0.9065171908033332  0.8507714312013375  0.24688193942330927  1.0000
  C   C54       1.0  0.09348280893466498  0.8507714312013375  0.2531180606619119  1.0000
  C   C55       1.0  0.4065171910924147  0.35077143106479386  0.2468819395816473  1.0000
  C   C56       1.0  0.5934828086455833  0.35077143106479386  0.2531180605035739  1.0000
  C   C57       1.0  0.06144203803392821  0.1432944639902802  0.8260919950210229  1.0000
  C   C58       1.0  0.9385579621316036  0.1432944639902802  0.673908005287774  1.0000
  C   C59       1.0  0.5614420377448467  0.6432944641268239  0.8260919948626848  1.0000
  C   C60       1.0  0.4385579622158962  0.6432944641268239  0.6739080048658931  1.0000
  C   C61       1.0  0.9385579618154423  0.8567055362828071  0.17390800488587665  1.0000
  C   C62       1.0  0.06144203771776683  0.8567055362828071  0.3260919946191256  1.0000
  C   C63       1.0  0.43855796210452386  0.3567055361462635  0.17390800504421472  1.0000
  C   C64       1.0  0.5614420382737166  0.3567055361462635  0.3260919950427062  1.0000
  C   C65       1.0  0.012832665863250329  0.36195026550296  0.711616281523023  1.0000
  C   C66       1.0  0.9871673343022815  0.36195026550296  0.7883837187857738  1.0000
  C   C67       1.0  0.5128326655741686  0.8619502656395036  0.7116162813646849  1.0000
  C   C68       1.0  0.48716733438657406  0.8619502656395036  0.788383718363893  1.0000
  C   C69       1.0  0.9871673339861201  0.6380497337349821  0.2883837183838766  1.0000
  C   C70       1.0  0.012832665547088916  0.6380497337349821  0.21161628112112568  1.0000
  C   C71       1.0  0.48716733427520176  0.1380497346335837  0.28838371854221456  1.0000
  C   C72       1.0  0.5128326654627963  0.1380497346335837  0.21161628154300657  1.0000
  N   N1        1.0  0.024504926511825387  0.2179403535828826  0.6889905156779464  1.0000
  N   N2        1.0  0.9754950730134642  0.2179403535828826  0.8110094846291507  1.0000
  N   N3        1.0  0.5245049268629861  0.7179403537194263  0.6889905155213082  1.0000
  N   N4        1.0  0.4754950733025457  0.7179403537194263  0.8110094847874887  1.0000
  N   N5        1.0  0.9754950735423341  0.7820596466902048  0.311009484809172  1.0000
  N   N6        1.0  0.024504926835906337  0.7820596466902048  0.1889905152777489  1.0000
  N   N7        1.0  0.4754950729863843  0.2820596465536611  0.3110094843855914  1.0000
  N   N8        1.0  0.5245049265468247  0.2820596465536611  0.18899051511941084  1.0000
  F   F1        1.0  0.24968946701213415  0.9665695175767954  0.5693356530152391  1.0000
  F   F2        1.0  0.7503105329486086  0.9665695175767954  0.9306643467133389  1.0000
  F   F3        1.0  0.7496894675680839  0.4665695174402517  0.5693356534388196  1.0000
  F   F4        1.0  0.2503105325974479  0.4665695174402517  0.930664346869977  1.0000
  F   F5        1.0  0.7503105328372363  0.03343048269629198  0.43066434689166044  1.0000
  F   F6        1.0  0.2496894669007618  0.03343048269629198  0.06933565319356075  1.0000
  F   F7        1.0  0.25031053292152894  0.5334304828328357  0.4306643464697796  1.0000
  F   F8        1.0  0.7496894672519224  0.5334304828328357  0.0693356530369224  1.0000
  F   F9        1.0  0.285330255754834  0.0475652387576314  0.32282036234753303  1.0000
  F   F10       1.0  0.7146697446234064  0.0475652387576314  0.17717963773938789  1.0000
  F   F11       1.0  0.7853302554657524  0.5475652388941751  0.32282036218919496  1.0000
  F   F12       1.0  0.21466974427224572  0.5475652388941751  0.17717963789602623  1.0000
  F   F13       1.0  0.7146697447347787  0.952434761515456  0.6771796375610662  1.0000
  F   F14       1.0  0.28533025522596406  0.952434761515456  0.8228203621675116  1.0000
  F   F15       1.0  0.21466974438361808  0.4524347613789123  0.6771796377177046  1.0000
  F   F16       1.0  0.7853302555771247  0.4524347613789123  0.8228203620108733  1.0000
  F   F17       1.0  0.06439586875734302  0.293237316453349  0.39857659078187574  1.0000
  F   F18       1.0  0.9356041309806552  0.293237316453349  0.10142340930334544  1.0000
  F   F19       1.0  0.5643958693132928  0.7932373165898927  0.3985765912054564  1.0000
  F   F20       1.0  0.43560413106494766  0.7932373165898927  0.10142340888146452  1.0000
  F   F21       1.0  0.9356041310920276  0.7067626838197384  0.6014234091250238  1.0000
  F   F22       1.0  0.06439586907350439  0.7067626838197384  0.8985765911837731  1.0000
  F   F23       1.0  0.43560413138110904  0.20676268368319467  0.6014234092833618  1.0000
  F   F24       1.0  0.5643958687844227  0.20676268368319467  0.898576591025435  1.0000
  I   I1        1.0  0.08772169030606143  0.17125154027312117  0.5701741363681514  1.0000
  I   I2        1.0  0.9122783098594703  0.17125154027312117  0.9298258639406456  1.0000
  I   I3        1.0  0.5877216900169797  0.6712515404096648  0.5701741362098133  1.0000
  I   I4        1.0  0.412278309943763  0.6712515404096648  0.9298258635187647  1.0000
  I   I5        1.0  0.9122783101835513  0.8287484599999662  0.429825863540448  1.0000
  I   I6        1.0  0.08772168998989999  0.8287484599999662  0.07017413596625399  1.0000
  I   I7        1.0  0.41227830983239067  0.32874845986342255  0.4298258636970863  1.0000
  I   I8        1.0  0.5877216899056074  0.32874845986342255  0.0701741363881349  1.0000
  I   I9        1.0  0.37975628513721593  0.8665587129097281  0.4724030390051443  1.0000
  I   I10       1.0  0.6202437146007822  0.8665587129097281  0.027596961080076844  1.0000
  I   I11       1.0  0.8797562854883766  0.36655871277318436  0.472403038848506  1.0000
  I   I12       1.0  0.12024371488986386  0.36655871277318436  0.027596961238414902  1.0000
  I   I13       1.0  0.6202437149169436  0.13344128632821403  0.5275969614819742  1.0000
  I   I14       1.0  0.37975628524858823  0.13344128632821403  0.9724030388268227  1.0000
  I   I15       1.0  0.12024371500123616  0.6334412864647577  0.5275969610600932  1.0000
  I   I16       1.0  0.8797562849595065  0.6334412864647577  0.9724030386684845  1.0000
  I   I17       1.0  0.13995334658271866  0.27307977234119785  0.2513093567493784  1.0000
  I   I18       1.0  0.8600466531552794  0.27307977234119785  0.24869064333584284  1.0000
  I   I19       1.0  0.6399533469338794  0.7730797714425962  0.25130935659274  1.0000
  I   I20       1.0  0.36004665344436104  0.7730797714425962  0.24869064349418088  1.0000
  I   I21       1.0  0.8600466532666518  0.7269202279318895  0.7486906431575211  1.0000
  I   I22       1.0  0.13995334669409104  0.7269202279318895  0.7513093565710568  1.0000
  I   I23       1.0  0.36004665355573345  0.22692022779534585  0.7486906433158592  1.0000
  I   I24       1.0  0.6399533464050092  0.22692022779534585  0.7513093564127187  1.0000
