data_image0
_chemical_formula_structural       H64C88N8O8S4Cl8
_chemical_formula_sum              "H64 C88 N8 O8 S4 Cl8"
_cell_length_a       14.741204554825616
_cell_length_b       13.979165934378463
_cell_length_c       9.509454572710155
_cell_angle_alpha    90.0
_cell_angle_beta     93.31296077334918
_cell_angle_gamma    90.0

_space_group_name_H-M_alt    "P 1"
_space_group_IT_number       1

loop_
  _space_group_symop_operation_xyz
  'x, y, z'

loop_
  _atom_site_type_symbol
  _atom_site_label
  _atom_site_symmetry_multiplicity
  _atom_site_fract_x
  _atom_site_fract_y
  _atom_site_fract_z
  _atom_site_occupancy
  H   H1        1.0  0.9119139938279671  0.662829140414805  0.6004233720049708  1.0000
  H   H2        1.0  0.08808600617273787  0.1628291409290868  0.8995766284848642  1.0000
  H   H3        1.0  0.08808600612959064  0.3371708592719816  0.3995766283695349  1.0000
  H   H4        1.0  0.9119139937848197  0.83717085947305  0.10042337188964144  1.0000
  H   H5        1.0  0.753623400327485  0.3878353676786121  0.41400819226909763  1.0000
  H   H6        1.0  0.2463765995449834  0.8878353678796805  0.08599180693674144  1.0000
  H   H7        1.0  0.24637659958813066  0.6121646320081744  0.5859918070520708  1.0000
  H   H8        1.0  0.7536234003706322  0.11216463180710606  0.914008192384427  1.0000
  H   H9        1.0  0.6167353554926284  0.7452861292946104  0.691109176083711  1.0000
  H   H10       1.0  0.38326464446613445  0.24528612909354197  0.8088908233527867  1.0000
  H   H11       1.0  0.3832646444229872  0.2547138703921762  0.3088908232374574  1.0000
  H   H12       1.0  0.6167353554914233  0.7547138705932446  0.1911091770217189  1.0000
  H   H13       1.0  0.7846277983437523  0.7523512668331177  0.6834114487059961  1.0000
  H   H14       1.0  0.2153722016569526  0.25235126663204926  0.8165885517838389  1.0000
  H   H15       1.0  0.21537220161380535  0.2476487335690191  0.31658855166850947  1.0000
  H   H16       1.0  0.7846277983006051  0.7476487337700874  0.18341144859066683  1.0000
  H   H17       1.0  0.6027225947983972  0.5601046040053409  0.32753185354007697  1.0000
  H   H18       1.0  0.3972774051160132  0.06010460380427248  0.17246814671909938  1.0000
  H   H19       1.0  0.39727740515916055  0.4398953963967959  0.6724681468344288  1.0000
  H   H20       1.0  0.6027225948415444  0.939895395882514  0.8275318536554063  1.0000
  H   H21       1.0  0.7066184047562514  0.5896885034984395  0.014149887609475477  1.0000
  H   H22       1.0  0.2933815951581591  0.08968850401272133  0.48585011264970085  1.0000
  H   H23       1.0  0.2933815951593642  0.41031149618834706  0.985850111711693  1.0000
  H   H24       1.0  0.7066184047993986  0.9103114963894154  0.5141498877248049  1.0000
  H   H25       1.0  0.5406212081299728  0.33921311702426926  0.9384218728771758  1.0000
  H   H26       1.0  0.4593787918707321  0.8392131172253378  0.5615781276126591  1.0000
  H   H27       1.0  0.4593787918275849  0.6607868833778675  0.06157812749732982  1.0000
  H   H28       1.0  0.5406212080868256  0.16078688317679915  0.43842187276184647  1.0000
  H   H29       1.0  0.5945776330348764  0.2743235152942265  0.17061745119417038  1.0000
  H   H30       1.0  0.4054223675577446  0.774323515495295  0.32938254906085407  1.0000
  H   H31       1.0  0.40542236755894967  0.72567648439256  0.8293825481228462  1.0000
  H   H32       1.0  0.5945776323998132  0.22567648419149164  0.6706174513136517  1.0000
  H   H33       1.0  0.9368837875494307  0.4452245770038299  0.49890409381674167  1.0000
  H   H34       1.0  0.06311621236497993  0.9452245772048984  0.001095906442434675  1.0000
  H   H35       1.0  0.06311621240812716  0.5547754226829567  0.501095906557764  1.0000
  H   H36       1.0  0.9368837875925778  0.054775422481888214  0.998904093932071  1.0000
  H   H37       1.0  0.02110621096360837  0.42870011402196384  0.7288810864427446  1.0000
  H   H38       1.0  0.9788937890370966  0.9287001142230322  0.7711189140470904  1.0000
  H   H39       1.0  0.9788937889939493  0.5712998856648227  0.2711189139317611  1.0000
  H   H40       1.0  0.02110621092046113  0.07129988546375428  0.22888108632741525  1.0000
  H   H41       1.0  0.7684383521037784  0.3362320765104346  0.8980774297495681  1.0000
  H   H42       1.0  0.23156164789692665  0.8362320767115029  0.6019225707402669  1.0000
  H   H43       1.0  0.2315616478537794  0.6637679231763519  0.10192257062493756  1.0000
  H   H44       1.0  0.7684383520606312  0.16376792369063384  0.39807742963423876  1.0000
  H   H45       1.0  0.6963840549949626  0.3573210636062235  0.6603658866293155  1.0000
  H   H46       1.0  0.3036159449638002  0.857321063807292  0.8396341128071823  1.0000
  H   H47       1.0  0.30361594492065286  0.642678936080563  0.3396341126918529  1.0000
  H   H48       1.0  0.6963840549937577  0.14267893659484487  0.16036588756732345  1.0000
  H   H49       1.0  0.0881071513257317  0.38799940536231686  0.910587871068235  1.0000
  H   H50       1.0  0.9118928486330311  0.8879994055633853  0.5894121283682628  1.0000
  H   H51       1.0  0.9118928485898838  0.6120005943244696  0.08941212825293342  1.0000
  H   H52       1.0  0.08810715132452662  0.11200059412340128  0.4105878720062429  1.0000
  H   H53       1.0  0.16035032306626845  0.36414486843462235  0.14794182790797025  1.0000
  H   H54       1.0  0.839649676848142  0.8641448686356907  0.35205817235120607  1.0000
  H   H55       1.0  0.8396496768912893  0.6358551312521642  0.8520581724665355  1.0000
  H   H56       1.0  0.1603503231094157  0.13585513176644606  0.6479418280232996  1.0000
  H   H57       1.0  0.9125657509346834  0.32023338237876325  0.32107811019624183  1.0000
  H   H58       1.0  0.08743424897972706  0.8202333818644815  0.17892189006293452  1.0000
  H   H59       1.0  0.08743424902287429  0.6797666180233735  0.6789218901782639  1.0000
  H   H60       1.0  0.9125657509778307  0.17976661782230513  0.8210781103115713  1.0000
  H   H61       1.0  0.8286927345953682  0.34218834960933475  0.09227885090992519  1.0000
  H   H62       1.0  0.17130726599725293  0.8421883498104031  0.40772114934509923  1.0000
  H   H63       1.0  0.1713072660404002  0.6578116500774518  0.9077211494604285  1.0000
  H   H64       1.0  0.8286927339603047  0.15781165059173366  0.5922788510294065  1.0000
  C   C1        1.0  0.60065122594574  0.6513787333768319  0.5106363183773478  1.0000
  C   C2        1.0  0.3993487740130227  0.1513787331757635  0.98936368105915  1.0000
  C   C3        1.0  0.39934877396987545  0.34862126630995466  0.4893636809438206  1.0000
  C   C4        1.0  0.600651225944535  0.848621266511023  0.010636319315355679  1.0000
  C   C5        1.0  0.6506250710502535  0.7061948535657702  0.6102171667131897  1.0000
  C   C6        1.0  0.34937492890850935  0.20619485408005195  0.8897828327233082  1.0000
  C   C7        1.0  0.34937492890730426  0.29380514612101644  0.38978283366131605  1.0000
  C   C8        1.0  0.6506250710071062  0.7938051463220849  0.1102171665978603  1.0000
  C   C9        1.0  0.7451334871365369  0.7088758940638894  0.6069065669994912  1.0000
  C   C10       1.0  0.25486651282222594  0.20887589457817135  0.8930934324370066  1.0000
  C   C11       1.0  0.25486651282102085  0.2911241056228971  0.3930934333750145  1.0000
  C   C12       1.0  0.7451334870933898  0.7911241058239654  0.1069065668841618  1.0000
  C   C13       1.0  0.7899182930389894  0.6563433514610427  0.5060937503397843  1.0000
  C   C14       1.0  0.2100817069617156  0.15634335197532465  0.9939062501500509  1.0000
  C   C15       1.0  0.21008170691856837  0.34365664822574377  0.49390625003472144  1.0000
  C   C16       1.0  0.7899182929958422  0.8436566484268122  0.00609375022445487  1.0000
  C   C17       1.0  0.7375032511654612  0.6044881654361528  0.40302441690303015  1.0000
  C   C18       1.0  0.2624967487489492  0.10448816595043467  0.09697558335614616  1.0000
  C   C19       1.0  0.26249674879209645  0.39551183425063374  0.5969755834714755  1.0000
  C   C20       1.0  0.7375032512086085  0.8955118344517021  0.9030244170183596  1.0000
  C   C21       1.0  0.6429651444382672  0.6018113462199237  0.4051862572976364  1.0000
  C   C22       1.0  0.35703485547614333  0.10181134673420554  0.09481374296153995  1.0000
  C   C23       1.0  0.35703485551929054  0.3981886534668629  0.5948137430768693  1.0000
  C   C24       1.0  0.6429651444814144  0.8981886536679312  0.9051862574129659  1.0000
  C   C25       1.0  0.715430338349546  0.48198913451838743  0.17710893840369576  1.0000
  C   C26       1.0  0.2845696615648645  0.9819891347194558  0.32289106185548055  1.0000
  C   C27       1.0  0.28456966160801184  0.5180108651683991  0.82289106197081  1.0000
  C   C28       1.0  0.7154303383507511  0.018010865682680975  0.6771089374656879  1.0000
  C   C29       1.0  0.6830233780761334  0.5197529698200156  0.04692595017338656  1.0000
  C   C30       1.0  0.316976621838277  0.019752969618947243  0.4530740500857897  1.0000
  C   C31       1.0  0.3169766218814242  0.48024702986677087  0.9530740502011191  1.0000
  C   C32       1.0  0.6830233781192807  0.9802470300678393  0.5469259502887159  1.0000
  C   C33       1.0  0.6204925888559941  0.46839531490911696  0.9615851909046567  1.0000
  C   C34       1.0  0.37950741110276875  0.9683953151101853  0.5384148085318411  1.0000
  C   C35       1.0  0.3795074110596215  0.5316046847776696  0.038414808416511806  1.0000
  C   C36       1.0  0.6204925888128469  0.03160468529195146  0.46158519078932736  1.0000
  C   C37       1.0  0.5892949170096647  0.37944298929561554  0.005374969075297992  1.0000
  C   C38       1.0  0.4107050835410142  0.8794429894966839  0.4946250301263892  1.0000
  C   C39       1.0  0.41070508290595087  0.6205570111065213  0.9946250302458706  1.0000
  C   C40       1.0  0.589294917052812  0.1205570109054529  0.5053749691906274  1.0000
  C   C41       1.0  0.6201069944152148  0.3426549246561306  0.13491212415185663  1.0000
  C   C42       1.0  0.3798930054991958  0.842654924857199  0.3650878761073197  1.0000
  C   C43       1.0  0.37989300554234307  0.6573450757460061  0.8650878762226489  1.0000
  C   C44       1.0  0.6201069944164198  0.15734507554493776  0.6349121232138488  1.0000
  C   C45       1.0  0.6835145720414106  0.3924416925696874  0.22354192643944965  1.0000
  C   C46       1.0  0.3164854278729998  0.8924416927707558  0.27645807381972665  1.0000
  C   C47       1.0  0.3164854279161471  0.6075583071170991  0.7764580739350561  1.0000
  C   C48       1.0  0.6835145720845578  0.10755830691603072  0.723541926554779  1.0000
  C   C49       1.0  0.9020730242965855  0.42129977551209696  0.5905539074660308  1.0000
  C   C50       1.0  0.09792697566217738  0.9212997757131655  0.9094460919704671  1.0000
  C   C51       1.0  0.09792697566097228  0.5787002241746896  0.40944609290847495  1.0000
  C   C52       1.0  0.9020730242534382  0.07870022468897142  0.09055390735070135  1.0000
  C   C53       1.0  0.9488614144123012  0.41252925511227234  0.7210177847074872  1.0000
  C   C54       1.0  0.05113858554646171  0.9125292553133407  0.7789822147290104  1.0000
  C   C55       1.0  0.051138585503314474  0.5874707452898645  0.27898221461368106  1.0000
  C   C56       1.0  0.9488614144110961  0.08747074508879604  0.22101778564549523  1.0000
  C   C57       1.0  0.9026445533531892  0.38170890559911264  0.8378762317825801  1.0000
  C   C58       1.0  0.09735544664751583  0.8817089050848308  0.662123768707255  1.0000
  C   C59       1.0  0.09735544660436858  0.6182910948030241  0.16212376859192557  1.0000
  C   C60       1.0  0.9026445533100418  0.11829109460195576  0.3378762316672507  1.0000
  C   C61       1.0  0.809516426493027  0.36218744049303775  0.8148610852085763  1.0000
  C   C62       1.0  0.1904835735076779  0.8621874406941061  0.6851389152812589  1.0000
  C   C63       1.0  0.19048357346453065  0.6378125591937487  0.18513891516592954  1.0000
  C   C64       1.0  0.8095164264498799  0.13781255899268038  0.3148610850932468  1.0000
  C   C65       1.0  0.7683861481428749  0.3728210863555875  0.6804733932061114  1.0000
  C   C66       1.0  0.23161385181588792  0.8728210858413057  0.8195266062303863  1.0000
  C   C67       1.0  0.23161385181468283  0.6271789140465494  0.3195266071683942  1.0000
  C   C68       1.0  0.7683861480997276  0.12717891384548088  0.18047339309078214  1.0000
  C   C69       1.0  0.9502370128501063  0.3680688471796703  0.9779726963570551  1.0000
  C   C70       1.0  0.049762987150598646  0.8680688473807388  0.52202730413278  1.0000
  C   C71       1.0  0.049762987107451404  0.6319311525071162  0.02202730401745064  1.0000
  C   C72       1.0  0.950237012806959  0.1319311523060478  0.4779726962417257  1.0000
  C   C73       1.0  0.04521403180746178  0.3740519659431661  0.9977248297179085  1.0000
  C   C74       1.0  0.9547859681932432  0.8740519661442345  0.5022751707719264  1.0000
  C   C75       1.0  0.954785968150096  0.6259480337436204  0.0022751706565970614  1.0000
  C   C76       1.0  0.045214031764314544  0.12594803354255207  0.49772482960257924  1.0000
  C   C77       1.0  0.08666050584526691  0.3599933382022444  0.13097886149328544  1.0000
  C   C78       1.0  0.9133394940272015  0.8599933384033128  0.3690211377125536  1.0000
  C   C79       1.0  0.9133394940703486  0.6400066621998924  0.8690211378278831  1.0000
  C   C80       1.0  0.08666050588841415  0.140006661998824  0.6309788616086148  1.0000
  C   C81       1.0  0.949236005209939  0.3350770376421791  0.227310259267193  1.0000
  C   C82       1.0  0.05076399470447153  0.8350770378432475  0.2726897409919833  1.0000
  C   C83       1.0  0.05076399474761878  0.6649229627599578  0.7726897411073127  1.0000
  C   C84       1.0  0.9492360052530863  0.1649229625588893  0.7273102593825225  1.0000
  C   C85       1.0  0.902311722687264  0.34766955931524174  0.09778411606523485  1.0000
  C   C86       1.0  0.09768827790535696  0.8476695595163102  0.4022158841897896  1.0000
  C   C87       1.0  0.09768827727029362  0.6523304410868951  0.9022158843092708  1.0000
  C   C88       1.0  0.9023117227304114  0.15233044088582665  0.5977841161805643  1.0000
  N   N1        1.0  0.8133233572482442  0.4013922508925051  0.5689944340482993  1.0000
  N   N2        1.0  0.18667664271051856  0.9013922510935735  0.9310055653881985  1.0000
  N   N3        1.0  0.18667664266737133  0.5986077487942815  0.4310055652728691  1.0000
  N   N4        1.0  0.8133233579252497  0.09860774930856334  0.06899443498215534  1.0000
  N   N5        1.0  0.04008761821591218  0.3404938701166959  0.24482190326509295  1.0000
  N   N6        1.0  0.9599123816984984  0.840493869602414  0.25517809699408334  1.0000
  N   N7        1.0  0.9599123817416456  0.6595061302854409  0.7551780971094126  1.0000
  N   N8        1.0  0.040087618259059425  0.1595061300843725  0.7448219033804224  1.0000
  O   O1        1.0  0.8814897297888397  0.6528980479124559  0.500485662606955  1.0000
  O   O2        1.0  0.11851027021186533  0.15289804771138743  0.99951433788288  1.0000
  O   O3        1.0  0.11851027016871808  0.34710195248968095  0.4995143377675508  1.0000
  O   O4        1.0  0.8814897297456924  0.8471019519753991  0.0004856624916255754  1.0000
  O   O5        1.0  0.7102680374973518  0.35040810539014405  0.3461059932608072  1.0000
  O   O6        1.0  0.2897319623751166  0.8504081048758622  0.15389400594503186  1.0000
  O   O7        1.0  0.2897319624182639  0.6495918950119927  0.6538940060603613  1.0000
  O   O8        1.0  0.7102680375404989  0.14959189481092436  0.8461059933761367  1.0000
  S   S1        1.0  0.8004678827964786  0.5439499856926253  0.27783250959178896  1.0000
  S   S2        1.0  0.1995321170759896  0.0439499854915569  0.22216748961405014  1.0000
  S   S3        1.0  0.19953211711913685  0.4560500147095115  0.7221674897293795  1.0000
  S   S4        1.0  0.800467882839626  0.9560500141952296  0.7778325097071183  1.0000
  Cl  Cl1       1.0  0.48367626328941915  0.6409601561395573  0.5215308594752792  1.0000
  Cl  Cl2       1.0  0.5163237367112858  0.1409601559384889  0.9784691410145558  1.0000
  Cl  Cl3       1.0  0.5163237366681386  0.3590398442625795  0.47846914089922654  1.0000
  Cl  Cl4       1.0  0.48367626324627194  0.8590398437482976  0.021530859359949823  1.0000
  Cl  Cl5       1.0  0.5818826023667599  0.5139928243021793  0.7998402810503508  1.0000
  Cl  Cl6       1.0  0.41811739763394506  0.013992824816461202  0.7001597194394842  1.0000
  Cl  Cl7       1.0  0.4181173975907978  0.4860071753846072  0.20015971932415488  1.0000
  Cl  Cl8       1.0  0.5818826023236127  0.9860071755856756  0.2998402809350214  1.0000
