data_image0
_chemical_formula_structural       H44C16N4I8
_chemical_formula_sum              "H44 C16 N4 I8"
_cell_length_a       7.005249068880851
_cell_length_b       10.518402914087483
_cell_length_c       11.854289700009582
_cell_angle_alpha    90.0
_cell_angle_beta     92.94916840152803
_cell_angle_gamma    90.0

_space_group_name_H-M_alt    "P 1"
_space_group_IT_number       1

loop_
  _space_group_symop_operation_xyz
  'x, y, z'

loop_
  _atom_site_type_symbol
  _atom_site_label
  _atom_site_symmetry_multiplicity
  _atom_site_fract_x
  _atom_site_fract_y
  _atom_site_fract_z
  _atom_site_occupancy
  H   H1        1.0  0.3814076573635074  0.6168290607417625  0.4583582172559632  1.0000
  H   H2        1.0  0.11859234204272467  0.11682906141142137  0.04164178275372961  1.0000
  H   H3        1.0  0.6185923428764216  0.3831709388696344  0.5416417827630104  1.0000
  H   H4        1.0  0.8814076567697394  0.8831709391506902  0.958358217265656  1.0000
  H   H5        1.0  0.6377283442120368  0.6060899142265903  0.46396410340252536  1.0000
  H   H6        1.0  0.8622716557729482  0.10608991489624914  0.03603589657849524  1.0000
  H   H7        1.0  0.3622716560278923  0.39391008538480665  0.5360358966164483  1.0000
  H   H8        1.0  0.1377283444669809  0.8939100856658625  0.9639641034404784  1.0000
  H   H9        1.0  0.5106671841756562  0.5741276750210801  0.1713043656787163  1.0000
  H   H10       1.0  0.9893328158093289  0.07412767474002423  0.32869563430230425  1.0000
  H   H11       1.0  0.48933281606427287  0.4258723255410316  0.8286956343402575  1.0000
  H   H12       1.0  0.010667184430600276  0.9258723258220873  0.6713043657166694  1.0000
  H   H13       1.0  0.6521078790815248  0.6566671362958737  0.279729741998512  1.0000
  H   H14       1.0  0.8478921209034602  0.15666713601481783  0.22027025798250854  1.0000
  H   H15       1.0  0.3478921211584043  0.34333286331552326  0.7202702580204616  1.0000
  H   H16       1.0  0.15210787790900393  0.843332863596579  0.7797297420368771  1.0000
  H   H17       1.0  0.39607336348954025  0.6745834113748217  0.270132390472025  1.0000
  H   H18       1.0  0.10392663591669178  0.17458341109376588  0.22986760953766783  1.0000
  H   H19       1.0  0.6039266367503889  0.32541658918728994  0.7298676095469487  1.0000
  H   H20       1.0  0.8960733628957723  0.8254165894683458  0.7701323904817178  1.0000
  H   H21       1.0  0.6406236237146429  0.3240871573225654  0.3726452419707912  1.0000
  H   H22       1.0  0.8593763762703421  0.8240871576036212  0.12735475801022936  1.0000
  H   H23       1.0  0.35937637652528626  0.6759128422888316  0.6273547580481825  1.0000
  H   H24       1.0  0.14062362396958694  0.17591284295849047  0.8726452420087444  1.0000
  H   H25       1.0  0.7923426233439763  0.45854401275504186  0.3504003173503005  1.0000
  H   H26       1.0  0.7076573766410088  0.9585440130360976  0.14959968263072002  1.0000
  H   H27       1.0  0.20765737689595284  0.5414559868563552  0.6495996826686731  1.0000
  H   H28       1.0  0.2923426235989203  0.041455987526014  0.8504003173882538  1.0000
  H   H29       1.0  0.6611987901110723  0.3839856233868555  0.23257764726825167  1.0000
  H   H30       1.0  0.8388012098739127  0.8839856236679113  0.2674223527127689  1.0000
  H   H31       1.0  0.3388012101288569  0.6160143762245414  0.767422352750722  1.0000
  H   H32       1.0  0.16119879036601634  0.11601437594348563  0.732577647306205  1.0000
  H   H33       1.0  0.19402065675574515  0.4997186743018012  0.32413357671022514  1.0000
  H   H34       1.0  0.30597934265048693  0.9997186736321424  0.17586642329946767  1.0000
  H   H35       1.0  0.8059793434841841  0.5002813262603104  0.6758664233087486  1.0000
  H   H36       1.0  0.6940206575894422  0.0002813259792545905  0.8241335767195059  1.0000
  H   H37       1.0  0.2989744004319868  0.3486931704325369  0.36214558135834213  1.0000
  H   H38       1.0  0.2010255989742452  0.8486931707135927  0.1378544186513507  1.0000
  H   H39       1.0  0.7010255983804773  0.6513068291788601  0.6378544186610435  1.0000
  H   H40       1.0  0.7989744012656839  0.1513068288978042  0.8621455813676231  1.0000
  H   H41       1.0  0.30814132132373734  0.40471603101442044  0.21957644074895719  1.0000
  H   H42       1.0  0.19185867950995972  0.9047160312954762  0.28042355926032375  1.0000
  H   H43       1.0  0.6918586789161919  0.5952839685969765  0.7804235592700166  1.0000
  H   H44       1.0  0.8081413207299694  0.09528396831592073  0.7195764407586499  1.0000
  C   C1        1.0  0.5037609352921163  0.5516776260993246  0.4554601901694705  1.0000
  C   C2        1.0  0.9962390661203336  0.051677625818268694  0.04453980981113815  1.0000
  C   C3        1.0  0.4962390649478127  0.4483223744627871  0.5445398098495032  1.0000
  C   C4        1.0  0.0037609341195954885  0.9483223737931282  0.9554601902078356  1.0000
  C   C5        1.0  0.5154733701467273  0.6096849020121747  0.25815827684255055  1.0000
  C   C6        1.0  0.9845266298382578  0.10968490173111888  0.24184172313847005  1.0000
  C   C7        1.0  0.48452663009320185  0.3903150985499369  0.7418417231764233  1.0000
  C   C8        1.0  0.015473370401671393  0.890315097880278  0.7581582768805037  1.0000
  C   C9        1.0  0.6602616291620971  0.40964252037057525  0.3220686097471792  1.0000
  C   C10       1.0  0.839738370822888  0.9096425197009165  0.17793139023384133  1.0000
  C   C11       1.0  0.339738371077832  0.5903574801915363  0.6779313902717945  1.0000
  C   C12       1.0  0.16026162941704122  0.09035747991048056  0.8220686097851324  1.0000
  C   C13       1.0  0.3100890574142376  0.4329601097425809  0.30860834664900866  1.0000
  C   C14       1.0  0.18991094199199454  0.9329601100236367  0.19139165336068414  1.0000
  C   C15       1.0  0.6899109428256914  0.567039889868816  0.6913916533699649  1.0000
  C   C16       1.0  0.8100890582479346  0.06703989053847487  0.8086083466582895  1.0000
  N   N1        1.0  0.49653400891139976  0.49877794213163995  0.3368316791935637  1.0000
  N   N2        1.0  0.0034659904205939364  0.9987779424126957  0.16316831997143397  1.0000
  N   N3        1.0  0.503465989826826  0.501222057479757  0.6631683199811268  1.0000
  N   N4        1.0  0.9965340097450968  0.0012220581494158467  0.8368316792028446  1.0000
  I   I1        1.0  0.0039045289419758814  0.716442238574749  0.4448941795664587  1.0000
  I   I2        1.0  0.49609547189172115  0.21644223829369322  0.055105820442822195  1.0000
  I   I3        1.0  0.9960954712979532  0.2835577619873626  0.555105820452515  1.0000
  I   I4        1.0  0.503904528348208  0.7835577613177037  0.9448941795761515  1.0000
  I   I5        1.0  0.6520943266501019  0.9123718561063084  0.48548572163840054  1.0000
  I   I6        1.0  0.8479056733348832  0.41237185582525254  0.014514278342620018  1.0000
  I   I7        1.0  0.3479056721623623  0.08762814445580326  0.5145142783809851  1.0000
  I   I8        1.0  0.15209432690504593  0.5876281437861444  0.9854857216763536  1.0000
