data_image0
_chemical_formula_structural       H32C80N8F16Cl8I8
_chemical_formula_sum              "H32 C80 N8 F16 Cl8 I8"
_cell_length_a       9.457371219605662
_cell_length_b       10.31887748744125
_cell_length_c       22.05180231570982
_cell_angle_alpha    100.77469234694495
_cell_angle_beta     92.63056006729578
_cell_angle_gamma    97.7910020716185

_space_group_name_H-M_alt    "P 1"
_space_group_IT_number       1

loop_
  _space_group_symop_operation_xyz
  'x, y, z'

loop_
  _atom_site_type_symbol
  _atom_site_label
  _atom_site_symmetry_multiplicity
  _atom_site_fract_x
  _atom_site_fract_y
  _atom_site_fract_z
  _atom_site_occupancy
  H   H1        1.0  0.365160788380332  0.2723704897035866  0.9073958563054677  1.0000
  H   H2        1.0  0.6348392107524967  0.7276295099266213  0.09260414384496156  1.0000
  H   H3        1.0  0.09447112985451109  0.21050179515778272  0.9067520487290726  1.0000
  H   H4        1.0  0.9055288692783174  0.7894982044724252  0.09324795142135688  1.0000
  H   H5        1.0  0.8662972787681643  0.48913023695238456  0.9350086428452233  1.0000
  H   H6        1.0  0.13370272142086032  0.5108697626707349  0.0649913573042275  1.0000
  H   H7        1.0  0.48512321014437493  0.3279462847964431  0.8145248688992537  1.0000
  H   H8        1.0  0.5148767901168804  0.672053715614678  0.18547513078913516  1.0000
  H   H9        1.0  0.7428638184155815  0.4384869389490986  0.8292220135421614  1.0000
  H   H10       1.0  0.2571361816934754  0.5615130604831728  0.17077798614443648  1.0000
  H   H11       1.0  0.5950337036967214  0.03961719486832565  0.9348001156966514  1.0000
  H   H12       1.0  0.4049662966445019  0.9603828057336434  0.06519988445459021  1.0000
  H   H13       1.0  0.9155153816390791  0.15975840762287838  0.8148056825808059  1.0000
  H   H14       1.0  0.08448461870214423  0.8402415929790908  0.18519431757043597  1.0000
  H   H15       1.0  0.6596507783993837  0.07332846437412466  0.8295288653659441  1.0000
  H   H16       1.0  0.340349221709673  0.9266715350581467  0.17047113432065375  1.0000
  H   H17       1.0  0.47907106045686004  0.5955740027694965  0.5922251940267982  1.0000
  H   H18       1.0  0.5209289397321647  0.40442599685362307  0.4077748061226526  1.0000
  H   H19       1.0  0.7728805617163642  0.2479328494083699  0.24440206748972185  1.0000
  H   H20       1.0  0.22711943741646434  0.752067150221838  0.7555979326607075  1.0000
  H   H21       1.0  0.6837672503574037  0.7752132782962166  0.631489154422465  1.0000
  H   H22       1.0  0.3162327498316211  0.22478672132690297  0.3685108457269858  1.0000
  H   H23       1.0  0.06405067161599996  0.4208863078129439  0.4045447574005684  1.0000
  H   H24       1.0  0.9359493285730249  0.5791136918101757  0.5954552427488824  1.0000
  H   H25       1.0  0.35951075753880324  0.5863821212766596  0.485202157465752  1.0000
  H   H26       1.0  0.64048924280242  0.4136178793253095  0.5147978426854897  1.0000
  H   H27       1.0  0.9814883032416487  0.419599253313041  0.29569171570051717  1.0000
  H   H28       1.0  0.01851169589118  0.580400746317167  0.7043082844499122  1.0000
  H   H29       1.0  0.4561502931007135  0.7540915503447133  0.4241462692239514  1.0000
  H   H30       1.0  0.5438497071605417  0.24590845006640766  0.5758537304644374  1.0000
  H   H31       1.0  0.6588139418783832  0.08521401122745983  0.3051187443705827  1.0000
  H   H32       1.0  0.3411860584628401  0.9147859893745093  0.6948812557806592  1.0000
  C   C1        1.0  0.474948568709121  0.322084379741243  0.9114793105684806  1.0000
  C   C2        1.0  0.5250514316321023  0.6779156208607262  0.08852068958276123  1.0000
  C   C3        1.0  0.42462963282227945  0.2965619383203626  0.0673099559335076  1.0000
  C   C4        1.0  0.5753703673667453  0.703438061302757  0.9326900442159434  1.0000
  C   C5        1.0  0.9388770465263514  0.1535256932468987  0.9687697516290398  1.0000
  C   C6        1.0  0.06112295373490401  0.8464743071642222  0.03123024805934897  1.0000
  C   C7        1.0  0.5510341220751219  0.3522979939982738  0.9697845903489201  1.0000
  C   C8        1.0  0.44896587818613337  0.6477020064128474  0.030215409339468757  1.0000
  C   C9        1.0  0.9829642741327186  0.17289805413090148  0.9107378195006754  1.0000
  C   C10       1.0  0.01703572597633808  0.8271019453013698  0.08926218018592254  1.0000
  C   C11       1.0  0.36158887191425915  0.27215993583661113  0.12124732485539957  1.0000
  C   C12       1.0  0.6384111282747656  0.7278400637865083  0.8787526752940512  1.0000
  C   C13       1.0  0.7548543285938325  0.44239459100432  0.9267824851738334  1.0000
  C   C14       1.0  0.2451456715951923  0.5576054086187995  0.07321751497561729  1.0000
  C   C15       1.0  0.21128628685973824  0.22980193735855883  0.12118525829629404  1.0000
  C   C16       1.0  0.7887137134015171  0.7701980630525622  0.8788147413920948  1.0000
  C   C17       1.0  0.5422147649213056  0.3531402358507145  0.8602252288583204  1.0000
  C   C18       1.0  0.4577852353399497  0.6468597645604065  0.13977477083006834  1.0000
  C   C19       1.0  0.68432892266066  0.41425938668100687  0.8679647660359469  1.0000
  C   C20       1.0  0.31567107768056324  0.5857406139209622  0.13203523411529486  1.0000
  C   C21       1.0  0.24133092838804962  0.22653520595825316  0.23117651491524233  1.0000
  C   C22       1.0  0.7586690717210072  0.7734647934740183  0.7688234847713555  1.0000
  C   C23       1.0  0.15457290405374022  0.2086596865346795  0.1767516309780338  1.0000
  C   C24       1.0  0.8454270960553164  0.7913403128975919  0.823248368708564  1.0000
  C   C25       1.0  0.44658751375807904  0.2919995312960457  0.17698906369245496  1.0000
  C   C26       1.0  0.5534124865031762  0.7080004691150753  0.8230109359959339  1.0000
  C   C27       1.0  0.035713983423939055  0.18276576786958637  0.021679923484884178  1.0000
  C   C28       1.0  0.9642860168373162  0.8172342325415345  0.9783200762035046  1.0000
  C   C29       1.0  0.7041574923019601  0.07781180870743165  0.9262953532926214  1.0000
  C   C30       1.0  0.2958425067509005  0.9221881907319284  0.07370464639495505  1.0000
  C   C31       1.0  0.48594645739562825  0.32238827113248825  0.022696145603764237  1.0000
  C   C32       1.0  0.5140535427933967  0.6776117284906313  0.9773038545456866  1.0000
  C   C33       1.0  0.8832199455284225  0.14433397536553755  0.8600550391139421  1.0000
  C   C34       1.0  0.11678005458063402  0.8556660240667339  0.13994496057265568  1.0000
  C   C35       1.0  0.3880610904074707  0.2690221551675256  0.2314618312165699  1.0000
  C   C36       1.0  0.6119389098537845  0.7309778452435954  0.7685381684718189  1.0000
  C   C37       1.0  0.7412488543262421  0.09667813687202456  0.8679481523979407  1.0000
  C   C38       1.0  0.2587511460149811  0.9033218637299445  0.13205184775330098  1.0000
  C   C39       1.0  0.12061303029265348  0.20721336300365403  0.06697530396952736  1.0000
  C   C40       1.0  0.8793869688401753  0.7927866366265539  0.933024696180902  1.0000
  C   C41       1.0  0.6795243019059221  0.8583646140595814  0.5493271115794967  1.0000
  C   C42       1.0  0.32047569843530127  0.14163538654238775  0.4506728885717452  1.0000
  C   C43       1.0  0.0007846194869199832  0.15363496399303556  0.6209979886818093  1.0000
  C   C44       1.0  0.9992153807021047  0.8463650356300839  0.37900201146764156  1.0000
  C   C45       1.0  0.001394941003323817  0.25317114101152194  0.5271290199199731  1.0000
  C   C46       1.0  0.9986050581295048  0.7468288586186861  0.4728709802304564  1.0000
  C   C47       1.0  0.5159767744542165  0.6670477827175115  0.5636029854479109  1.0000
  C   C48       1.0  0.48402322565484013  0.33295221671476005  0.43639701423868693  1.0000
  C   C49       1.0  0.8125970836521981  0.2532224631294965  0.29200697153790617  1.0000
  C   C50       1.0  0.18740291563282913  0.7467775374795612  0.7079930286143141  1.0000
  C   C51       1.0  0.6310849476327238  0.7660691840433178  0.5858623009189778  1.0000
  C   C52       1.0  0.36891505270849945  0.23393081655865142  0.41413769923226396  1.0000
  C   C53       1.0  0.8888850173791274  0.05168692527341453  0.5947984362104239  1.0000
  C   C54       1.0  0.11111498296209596  0.9483130753285546  0.4052015639408178  1.0000
  C   C55       1.0  0.057396977441451794  0.25226323256640193  0.587317435009351  1.0000
  C   C56       1.0  0.9426030226676049  0.7477367668658693  0.4126825646772468  1.0000
  C   C57       1.0  0.9740240511104818  0.3487094993730307  0.3814913407164381  1.0000
  C   C58       1.0  0.0259759491507735  0.6512905010380904  0.6185086589719507  1.0000
  C   C59       1.0  0.23400538953560635  0.34865956593515723  0.6741096449790046  1.0000
  C   C60       1.0  0.7659946108056169  0.6513404346668119  0.32589035517223713  1.0000
  C   C61       1.0  0.9065961929451128  0.25419788340495103  0.41303897976376625  1.0000
  C   C62       1.0  0.09340380610774784  0.7458021160344088  0.5869610199238101  1.0000
  C   C63       1.0  0.45032921042719  0.6611613025267791  0.5049552342299253  1.0000
  C   C64       1.0  0.5496707897618349  0.3388386970963405  0.4950447659195256  1.0000
  C   C65       1.0  0.9534124847317645  0.25149945418265696  0.4745944224344793  1.0000
  C   C66       1.0  0.04658751552949066  0.7485005462284641  0.5254055772539096  1.0000
  C   C67       1.0  0.17448280686468276  0.3466394143888301  0.6148910574529466  1.0000
  C   C68       1.0  0.8255171933243421  0.6533605852342894  0.38510894269650425  1.0000
  C   C69       1.0  0.927091163109354  0.347734460734736  0.32061808938653713  1.0000
  C   C70       1.0  0.07290883699970284  0.6522655386975353  0.6793819103000608  1.0000
  C   C71       1.0  0.5032233299052088  0.753985456834466  0.47025758881478985  1.0000
  C   C72       1.0  0.49677667028381595  0.24601454278865342  0.529742411334661  1.0000
  C   C73       1.0  0.7933703238753586  0.9621530907806111  0.5715868049888924  1.0000
  C   C74       1.0  0.20662967631366624  0.03784690884250837  0.42841319516055854  1.0000
  C   C75       1.0  0.17845494930512096  0.25222931159038103  0.7069837064525012  1.0000
  C   C76       1.0  0.8215450510361023  0.747770689011588  0.29301629369874055  1.0000
  C   C77       1.0  0.06327271055261598  0.1564450147060552  0.680306733956615  1.0000
  C   C78       1.0  0.9367272897086393  0.8435549857050657  0.31969326573177376  1.0000
  C   C79       1.0  0.7489871064174103  0.16130212002392663  0.32510148053265436  1.0000
  C   C80       1.0  0.2510128937716144  0.8386978795991928  0.6748985196167965  1.0000
  N   N1        1.0  0.8002678997256912  0.10507160543136204  0.97527276490896  1.0000
  N   N2        1.0  0.19973210038336553  0.8949283940009095  0.02472723477763802  1.0000
  N   N3        1.0  0.6902004328706057  0.41235374862781105  0.9762551823473707  1.0000
  N   N4        1.0  0.309799567318419  0.5876462509953083  0.023744817802079928  1.0000
  N   N5        1.0  0.794906389807538  0.16214563746927355  0.38374621440665996  1.0000
  N   N6        1.0  0.20509361038148669  0.8378543621538458  0.6162537857427908  1.0000
  N   N7        1.0  0.6146446586781656  0.8491719515976315  0.49178851475081176  1.0000
  N   N8        1.0  0.3853553415830897  0.15082804881348952  0.5082114849375772  1.0000
  F   F1        1.0  0.4729161266793663  0.2876137065171446  0.2836933939424094  1.0000
  F   F2        1.0  0.5270838735096585  0.7123862931059749  0.7163066062070415  1.0000
  F   F3        1.0  0.5875011197781914  0.33563740098562383  0.1788342638736449  1.0000
  F   F4        1.0  0.41249888056303186  0.6643625996163453  0.8211657362775968  1.0000
  F   F5        1.0  0.18264049802039103  0.20152937473551663  0.2828150448915623  1.0000
  F   F6        1.0  0.8173595022408643  0.7984706256756045  0.7171849547968264  1.0000
  F   F7        1.0  0.014055349466127274  0.1672564134339011  0.17833169888181769  1.0000
  F   F8        1.0  0.9859446496667014  0.832743586196307  0.8216683012686117  1.0000
  F   F9        1.0  0.3446433146644659  0.44141990429967  0.6991967535127536  1.0000
  F   F10       1.0  0.6553566844683628  0.5585800953305381  0.3008032466376758  1.0000
  F   F11       1.0  0.2379891344973864  0.25036784379949767  0.7630020982101207  1.0000
  F   F12       1.0  0.7620108658438369  0.7496321568024714  0.2369979019411212  1.0000
  F   F13       1.0  0.23405455448829715  0.4378907183836361  0.5832476702743742  1.0000
  F   F14       1.0  0.7659454456207595  0.5621092810486354  0.41675232941222373  1.0000
  F   F15       1.0  0.013843051918934613  0.06299395814422686  0.7124179745496517  1.0000
  F   F16       1.0  0.9861569484222886  0.9370060424577422  0.2875820256015901  1.0000
  Cl  Cl1       1.0  0.9618029814636813  0.5166547181071371  0.17623435674883517  1.0000
  Cl  Cl2       1.0  0.038197018877542  0.4833452824948319  0.8237656434024067  1.0000
  Cl  Cl3       1.0  0.6346931860968612  0.9994354729323194  0.16735349056616855  1.0000
  Cl  Cl4       1.0  0.36530681416439414  0.0005645274788015437  0.8326465091222202  1.0000
  Cl  Cl5       1.0  0.4009293234518528  0.9750848360822485  0.2861903789008473  1.0000
  Cl  Cl6       1.0  0.5990706768893705  0.024915164519720517  0.7138096212503945  1.0000
  Cl  Cl7       1.0  0.2813798152949622  0.5194165094966384  0.3438888352437912  1.0000
  Cl  Cl8       1.0  0.7186201848140945  0.4805834899356331  0.6561111644428067  1.0000
  I   I1        1.0  0.8187893842041569  0.4639310966446374  0.07270242816670996  1.0000
  I   I2        1.0  0.1812106161370664  0.5360689039573316  0.9272975719845319  1.0000
  I   I3        1.0  0.7242978265070036  0.055377354178753946  0.06881222256319015  1.0000
  I   I4        1.0  0.27570217383421974  0.9446226464232151  0.9311877775880516  1.0000
  I   I5        1.0  0.3394467189267179  0.7447079822351879  0.30986426265335787  1.0000
  I   I6        1.0  0.6605532812623068  0.25529201738793167  0.6901357374960929  1.0000
  I   I7        1.0  0.6956645805562427  0.0036522495939056467  0.43500416014915827  1.0000
  I   I8        1.0  0.30433541963278216  0.9963477500292138  0.5649958400002926  1.0000
