data_image0
_chemical_formula_structural       H44C26N4O10I8
_chemical_formula_sum              "H44 C26 N4 O10 I8"
_cell_length_a       5.385375816209644
_cell_length_b       14.590898131539948
_cell_length_c       13.792633062402615
_cell_angle_alpha    90.0
_cell_angle_beta     96.33309016292051
_cell_angle_gamma    90.0

_space_group_name_H-M_alt    "P 1"
_space_group_IT_number       1

loop_
  _space_group_symop_operation_xyz
  'x, y, z'

loop_
  _atom_site_type_symbol
  _atom_site_label
  _atom_site_symmetry_multiplicity
  _atom_site_fract_x
  _atom_site_fract_y
  _atom_site_fract_z
  _atom_site_occupancy
  H   H1        1.0  0.9304493838381895  0.7896398663146581  0.3701063410249428  1.0000
  H   H2        1.0  0.06955061711741044  0.2896398660247496  0.6298936587511397  1.0000
  H   H3        1.0  0.16996086777078948  0.8025054225201546  0.4588960675358084  1.0000
  H   H4        1.0  0.8300391315254282  0.302505422230246  0.5411039329667019  1.0000
  H   H5        1.0  0.9012637976289513  0.8632069332849701  0.46676137184417166  1.0000
  H   H6        1.0  0.09873620146892458  0.3632069336804204  0.5332386279288687  1.0000
  H   H7        1.0  0.9142924109786263  0.6613760107844379  0.4623090333788393  1.0000
  H   H8        1.0  0.0857075881192495  0.16137601117988817  0.537690966394201  1.0000
  H   H9        1.0  0.17998185863755156  0.7416308175443294  0.6088928952816193  1.0000
  H   H10       1.0  0.8200181423180484  0.24163081725442084  0.3911071044944632  1.0000
  H   H11       1.0  0.8886617770252367  0.7694622955204655  0.6515187916943918  1.0000
  H   H12       1.0  0.11133822412870475  0.26946229591591575  0.3484812088111608  1.0000
  H   H13       1.0  0.09082799479729557  0.576452540081732  0.6089677402173059  1.0000
  H   H14       1.0  0.9091720061583042  0.07645253979182341  0.3910322595587765  1.0000
  H   H15       1.0  0.17434794380357646  0.31207244947843554  0.8560785489465698  1.0000
  H   H16       1.0  0.8256520573503651  0.812072449768344  0.14392145155898264  1.0000
  H   H17       1.0  0.26483840471463077  0.18453546764059442  0.9759772626082828  1.0000
  H   H18       1.0  0.7351615945815868  0.684535467930503  0.024022737894227583  1.0000
  H   H19       1.0  0.17493402803694216  0.10316612016817155  0.8832086058734504  1.0000
  H   H20       1.0  0.8250659729186578  0.60316612045808  0.11679139390263205  1.0000
  H   H21       1.0  0.9496268182789154  0.18078324831136375  0.9222249044731561  1.0000
  H   H22       1.0  0.050373180818960486  0.6807832479159135  0.07777509529988418  1.0000
  H   H23       1.0  0.6038109819650179  0.2635570418854083  0.876024948771662  1.0000
  H   H24       1.0  0.3961890171328579  0.7635570421753168  0.12397505100137826  1.0000
  H   H25       1.0  0.519693410782861  0.2754822378830337  0.7485886354089751  1.0000
  H   H26       1.0  0.48030658831501494  0.7754822381729423  0.25141136436406514  1.0000
  H   H27       1.0  0.540328168694269  0.16443641291783706  0.8025429072668012  1.0000
  H   H28       1.0  0.4596718306019486  0.6644364132077456  0.19745709323570915  1.0000
  H   H29       1.0  0.01847799967652875  0.16617927067551205  0.7259497710315824  1.0000
  H   H30       1.0  0.9815219994213471  0.6661792709654205  0.27405022874145785  1.0000
  H   H31       1.0  0.22584706664909515  0.9844793754641855  0.5423867826616219  1.0000
  H   H32       1.0  0.7741529324487808  0.48447937585963574  0.45761321711141845  1.0000
  H   H33       1.0  0.48208382908035713  0.9332429139893429  0.5027902910337003  1.0000
  H   H34       1.0  0.5179161702158606  0.43324291438479307  0.49720970946881005  1.0000
  H   H35       1.0  0.44424277869115897  0.05111146505696911  0.49350434090130596  1.0000
  H   H36       1.0  0.5557572204067169  0.551111464661519  0.5064956588717343  1.0000
  H   H37       1.0  0.3050037953275335  0.9202348956830724  0.6960496294090383  1.0000
  H   H38       1.0  0.6949962039686841  0.4202348960785226  0.30395037109347217  1.0000
  H   H39       1.0  0.5959030490029263  0.8674303004447199  0.684460546126856  1.0000
  H   H40       1.0  0.4040969519526735  0.3674303001548114  0.31553945364922636  1.0000
  H   H41       1.0  0.5060734379203937  0.0740761494087634  0.6579253879942849  1.0000
  H   H42       1.0  0.4939265611774822  0.574076149013313  0.3420746117787554  1.0000
  H   H43       1.0  0.7562428756700732  0.004892461681004543  0.8163549832572119  1.0000
  H   H44       1.0  0.24375712342780273  0.504892461970913  0.18364501651582843  1.0000
  C   C1        1.0  0.580965682353465  0.7329321028486491  0.4935043521752111  1.0000
  C   C2        1.0  0.41903431860213475  0.23293210255874058  0.5064956476008713  1.0000
  C   C3        1.0  0.866492346093456  0.7246290087616497  0.49899988389401867  1.0000
  C   C4        1.0  0.13350765486214386  0.2246290084717412  0.5010001158820637  1.0000
  C   C5        1.0  0.8430116735892356  0.593679073207659  0.7136099223775931  1.0000
  C   C6        1.0  0.15698832550864034  0.09367907360310924  0.28639007739544714  1.0000
  C   C7        1.0  0.9829116091103007  0.7211798585074091  0.6066117266845432  1.0000
  C   C8        1.0  0.017088389987575153  0.22117985821750058  0.39338827308849705  1.0000
  C   C9        1.0  0.9766184455548815  0.6254920997818503  0.6445816165557301  1.0000
  C   C10       1.0  0.02338155354299434  0.12549209949194187  0.35541838321731023  1.0000
  C   C11       1.0  0.21087875717625207  0.2421325170081993  0.8310633213725838  1.0000
  C   C12       1.0  0.7891212421199656  0.7421325172981078  0.16893667912992663  1.0000
  C   C13       1.0  0.1445188035608312  0.17375683505868075  0.9073013402989013  1.0000
  C   C14       1.0  0.8554811955370447  0.6737568346632304  0.092698659474139  1.0000
  C   C15       1.0  0.4841054850311765  0.23579996577200968  0.8132010817503206  1.0000
  C   C16       1.0  0.5158945140666994  0.7357999653765593  0.18679891802271978  1.0000
  C   C17       1.0  0.5077834491669023  0.9323436657126629  0.7033934154129035  1.0000
  C   C18       1.0  0.49221655012931537  0.4323436654227544  0.29660658508960697  1.0000
  C   C19       1.0  0.5651576843296641  0.007647793781713065  0.6313484979675463  1.0000
  C   C20       1.0  0.4348423166259357  0.5076477940716215  0.36865150180853595  1.0000
  C   C21       1.0  0.49505483308204223  0.9323598847279604  0.8864690884140205  1.0000
  C   C22       1.0  0.5049451660158337  0.4323598851234107  0.11353091135901981  1.0000
  C   C23       1.0  0.5948728699905719  0.9589004956285951  0.8062794997491091  1.0000
  C   C24       1.0  0.405127129107304  0.45890049533868665  0.19372050002393124  1.0000
  C   C25       1.0  0.8450781596361524  0.01243036572285752  0.6183949299421985  1.0000
  C   C26       1.0  0.15492184151778915  0.512430366012766  0.3816050705633539  1.0000
  N   N1        1.0  0.9715805724021782  0.8010815869335642  0.445470919381896  1.0000
  N   N2        1.0  0.02841942669569769  0.30108158664365575  0.5545290803911443  1.0000
  N   N3        1.0  0.4192092342695538  0.991972735298126  0.5350316494636163  1.0000
  N   N4        1.0  0.5807907668843878  0.49197273569357636  0.4649683510419361  1.0000
  O   O1        1.0  0.46030620229763297  0.6627540328786733  0.5135644579508999  1.0000
  O   O2        1.0  0.539693796800243  0.16275403258876478  0.4864355418221404  1.0000
  O   O3        1.0  0.4846198636798644  0.8112431231641206  0.4718856485147749  1.0000
  O   O4        1.0  0.5153801354180115  0.31124312287421213  0.5281143512582654  1.0000
  O   O5        1.0  0.04812618131189524  0.23219213371633868  0.7407048280536576  1.0000
  O   O6        1.0  0.9518738179843225  0.7321921333208885  0.25929517244885275  1.0000
  O   O7        1.0  0.9877259281014394  0.056270005629416794  0.6804458001136662  1.0000
  O   O8        1.0  0.012274070996436437  0.5562700059193253  0.3195541996593742  1.0000
  O   O9        1.0  0.9164141258703081  0.9687780438576834  0.5458248641064006  1.0000
  O   O10       1.0  0.08358587322756773  0.4687780442531337  0.45417513566663964  1.0000
  I   I1        1.0  0.6090057089967715  0.6761063206024063  0.7902100262200793  1.0000
  I   I2        1.0  0.39099429195882823  0.17610632031249782  0.20978997355600296  1.0000
  I   I3        1.0  0.8444824230747378  0.45330606247621935  0.7482764598248938  1.0000
  I   I4        1.0  0.15551757622148  0.9533060627661278  0.25172354067761665  1.0000
  I   I5        1.0  0.1927759248884983  0.8391822710030601  0.8824526991209487  1.0000
  I   I6        1.0  0.8072240760671014  0.3391822713985103  0.11754730065513361  1.0000
  I   I7        1.0  0.640149387139978  0.9787452205653074  0.0249318134692509  1.0000
  I   I8        1.0  0.3598506119578979  0.47874522027539895  0.9750681863037893  1.0000
