data_image0
_chemical_formula_structural       H36C58N4O2F8I4
_chemical_formula_sum              "H36 C58 N4 O2 F8 I4"
_cell_length_a       9.155206661952025
_cell_length_b       9.70713363044495
_cell_length_c       15.66760272111117
_cell_angle_alpha    107.60053589365207
_cell_angle_beta     91.00884142012856
_cell_angle_gamma    107.20970953984379

_space_group_name_H-M_alt    "P 1"
_space_group_IT_number       1

loop_
  _space_group_symop_operation_xyz
  'x, y, z'

loop_
  _atom_site_type_symbol
  _atom_site_label
  _atom_site_symmetry_multiplicity
  _atom_site_fract_x
  _atom_site_fract_y
  _atom_site_fract_z
  _atom_site_occupancy
  H   H1        1.0  0.003364482501247706  0.6958272417745673  0.7223963607808802  1.0000
  H   H2        1.0  0.9966355178227779  0.3041727579568919  0.27760363873576305  1.0000
  H   H3        1.0  0.0029790246204506993  0.7817659681835747  0.8887277805286372  1.0000
  H   H4        1.0  0.997020974744457  0.2182340319137074  0.11127221966112341  1.0000
  H   H5        1.0  0.9901146892854475  0.8664951028916835  0.019311387607954318  1.0000
  H   H6        1.0  0.009885311173001135  0.1335048972095451  0.9806886125829692  1.0000
  H   H7        1.0  0.9732091385795174  0.9560481472574277  0.18102120812065337  1.0000
  H   H8        1.0  0.026790860785390336  0.04395185283985424  0.8189787920691073  1.0000
  H   H9        1.0  0.7218885200404981  0.8858410180700242  0.24182589219231243  1.0000
  H   H10       1.0  0.2781114802835276  0.1141589816614349  0.7581741073243308  1.0000
  H   H11       1.0  0.4850757279831111  0.7226387694686653  0.13533231570747323  1.0000
  H   H12       1.0  0.5149242723409145  0.27736123026279386  0.8646676838091699  1.0000
  H   H13       1.0  0.4995126363892989  0.6291975001010236  0.9733678950033201  1.0000
  H   H14       1.0  0.5004873640691497  0.3708025000002049  0.026632105187603426  1.0000
  H   H15       1.0  0.5064118750691027  0.5713410452806374  0.8430905393690484  1.0000
  H   H16       1.0  0.493588125389346  0.42865895482059113  0.15690946082187507  1.0000
  H   H17       1.0  0.5297534528325265  0.4938410343487635  0.679691891098218  1.0000
  H   H18       1.0  0.4702465465323812  0.5061589657485186  0.3203081090915425  1.0000
  H   H19       1.0  0.6313705507880448  0.9876509677977937  0.05903273088216788  1.0000
  H   H20       1.0  0.3686294484424398  0.01234903192971879  0.9409672686333125  1.0000
  H   H21       1.0  0.6345099961793131  0.13299921891792169  0.24280174671046634  1.0000
  H   H22       1.0  0.36549000414471255  0.8670007808135375  0.7571982528061769  1.0000
  H   H23       1.0  0.705867478284738  0.3903038086647876  0.3576759419004738  1.0000
  H   H24       1.0  0.2941325210801698  0.6096961914324945  0.6423240582892868  1.0000
  H   H25       1.0  0.807355021321696  0.6220801676927469  0.3136960548352834  1.0000
  H   H26       1.0  0.19264497804321157  0.3779198324045352  0.6863039453544773  1.0000
  H   H27       1.0  0.847905441316992  0.6042459549048331  0.1546821485463125  1.0000
  H   H28       1.0  0.15209455914145673  0.39575404519639557  0.845317851644611  1.0000
  H   H29       1.0  0.8654956102895421  0.49968498148020457  0.9679582934633496  1.0000
  H   H30       1.0  0.13450438907536552  0.5003150186170774  0.03204170672641101  1.0000
  H   H31       1.0  0.8527531986736128  0.3418871126357886  0.8075430808358062  1.0000
  H   H32       1.0  0.14724680178483585  0.65811288746544  0.19245691935511747  1.0000
  H   H33       1.0  0.7495941997694181  0.06069160525332409  0.7614312244025088  1.0000
  H   H34       1.0  0.2504058006890305  0.9393083948479046  0.23856877578841484  1.0000
  H   H35       1.0  0.6576748437364799  0.9280368942762024  0.8723512458811591  1.0000
  H   H36       1.0  0.3423251567219687  0.07196310582502642  0.12764875430976452  1.0000
  C   C1        1.0  0.8985692750081498  0.6729950645449143  0.754471658770632  1.0000
  C   C2        1.0  0.10143072531587596  0.32700493518654483  0.24552834074601113  1.0000
  C   C3        1.0  0.8937960301242046  0.7188089439285797  0.846494679775744  1.0000
  C   C4        1.0  0.10620396924070291  0.2811910561687022  0.15350532041401663  1.0000
  C   C5        1.0  0.7536991709316742  0.6867742272447378  0.8838293067546258  1.0000
  C   C6        1.0  0.24630082952677443  0.31322577285649084  0.11617069343629775  1.0000
  C   C7        1.0  0.7459331198552773  0.7402375138308985  0.9819789078389918  1.0000
  C   C8        1.0  0.2540668806031713  0.25976248627033016  0.018021092351931858  1.0000
  C   C9        1.0  0.878013951992209  0.8334509389758213  0.043078999215419835  1.0000
  C   C10       1.0  0.12198604846623955  0.16654906112540735  0.9569210009755037  1.0000
  C   C11       1.0  0.869045692649865  0.885311553417002  0.13544968053061357  1.0000
  C   C12       1.0  0.13095430767416075  0.11468844631445717  0.8645503189860296  1.0000
  C   C13       1.0  0.728365782209012  0.845974667828471  0.16965735646957575  1.0000
  C   C14       1.0  0.2716342182494365  0.1540253322727576  0.8303426437213478  1.0000
  C   C15       1.0  0.5961499318307314  0.7536190228808989  0.11010273480384139  1.0000
  C   C16       1.0  0.4038500686277173  0.24638097722032978  0.8898972653870821  1.0000
  C   C17       1.0  0.6048484326323883  0.7011033545610472  0.01764977058898324  1.0000
  C   C18       1.0  0.39515156673251944  0.2988966455362349  0.9823502296007774  1.0000
  C   C19       1.0  0.6206896967081003  0.602572405551121  0.8217722708428994  1.0000
  C   C20       1.0  0.37931030375034835  0.3974275945501076  0.17822772934802417  1.0000
  C   C21       1.0  0.6288733853272015  0.5578833368419666  0.730199028012178  1.0000
  C   C22       1.0  0.3711266139032833  0.44211666288554596  0.2698009715033023  1.0000
  C   C23       1.0  0.7013619404666553  0.22465650418943897  0.13402191580967418  1.0000
  C   C24       1.0  0.2986380599917932  0.7753434959117897  0.8659780843812495  1.0000
  C   C25       1.0  0.6803092050584796  0.23446987697385197  0.22347433220803622  1.0000
  C   C26       1.0  0.319690794306428  0.7655301231234299  0.7765256679817244  1.0000
  C   C27       1.0  0.7203006571622176  0.37934534241918966  0.2871996443929279  1.0000
  C   C28       1.0  0.2796993432962311  0.6206546576820391  0.7128003557979957  1.0000
  C   C29       1.0  0.7787095374049321  0.511031184619712  0.2622061057704482  1.0000
  C   C30       1.0  0.22129046305351655  0.4889688154815166  0.7377938944204754  1.0000
  C   C31       1.0  0.8011201829508074  0.5013899256232256  0.1730275220960225  1.0000
  C   C32       1.0  0.19887981737321817  0.49861007410823355  0.8269724774206206  1.0000
  C   C33       1.0  0.7632027136916503  0.35683062909326146  0.10763899614222482  1.0000
  C   C34       1.0  0.23679728663237543  0.6431693706381977  0.8923610033744184  1.0000
  C   C35       1.0  0.7716356373746734  0.30302383724848564  0.01157203576218952  1.0000
  C   C36       1.0  0.22836436308377514  0.6969761628527431  0.9884279644287342  1.0000
  C   C37       1.0  0.8212337159987039  0.375761252606242  0.9475331197490253  1.0000
  C   C38       1.0  0.17876628445974468  0.6242387474949868  0.052466880441898345  1.0000
  C   C39       1.0  0.8132812331525912  0.287257296928112  0.8579969563324062  1.0000
  C   C40       1.0  0.18671876717143449  0.7127427028033472  0.14200304318423695  1.0000
  C   C41       1.0  0.7552660247877631  0.12729295157067352  0.8317715513334593  1.0000
  C   C42       1.0  0.24473397553626267  0.8727070481607857  0.16822844818318394  1.0000
  C   C43       1.0  0.7038881933662254  0.05176307676624072  0.8936850356823443  1.0000
  C   C44       1.0  0.29611180709222334  0.9482369233349882  0.10631496450857937  1.0000
  C   C45       1.0  0.7132654713703271  0.14059132684208087  0.9836724394689392  1.0000
  C   C46       1.0  0.28673452908812147  0.8594086732591477  0.016327560721984324  1.0000
  C   C47       1.0  0.5562692214950586  0.8911905450081496  0.5214468203980089  1.0000
  C   C48       1.0  0.44373077896338997  0.10880945509307893  0.4785531797929146  1.0000
  C   C49       1.0  0.5534452482852051  0.901582996658723  0.43481069182898524  1.0000
  C   C50       1.0  0.4465547521732434  0.09841700344250556  0.5651893083619383  1.0000
  C   C51       1.0  0.5013044631129353  0.9918779652570998  0.5859966317861569  1.0000
  C   C52       1.0  0.4986955373455133  0.008122034844128719  0.4140033684047666  1.0000
  C   C53       1.0  0.9440730279709358  0.12728655958568075  0.521534639053975  1.0000
  C   C54       1.0  0.05592697248751268  0.8727134405155478  0.47846536113694854  1.0000
  C   C55       1.0  0.9560881398512806  0.04887776334930689  0.4327351330541426  1.0000
  C   C56       1.0  0.04391186060716811  0.9511222367519218  0.5672648671367809  1.0000
  C   C57       1.0  0.9887379686080525  0.07505589626485393  0.5882787548767953  1.0000
  C   C58       1.0  0.011262030756855012  0.924944103832428  0.41172124531296533  1.0000
  N   N1        1.0  0.7663826620247524  0.5951917165754891  0.6969646756326533  1.0000
  N   N2        1.0  0.23361733829927334  0.40480828315597006  0.30303532388398996  1.0000
  N   N3        1.0  0.6718342455391799  0.09671550177699402  0.05843140583080542  1.0000
  N   N4        1.0  0.32816575491926875  0.9032844983242347  0.9415685943601182  1.0000
  O   O1        1.0  0.770678400881382  0.5579574559101238  0.6089132653414696  1.0000
  O   O2        1.0  0.22932159944264363  0.44204254382133534  0.3910867341751737  1.0000
  F   F1        1.0  0.6041084440795953  0.8062166755438105  0.368089928740632  1.0000
  F   F2        1.0  0.3958915562444304  0.1937833241876487  0.6319100707760112  1.0000
  F   F3        1.0  0.4996870035478243  0.9879197995671641  0.6717772243475101  1.0000
  F   F4        1.0  0.5003129969106243  0.012080200534064509  0.32822277584341353  1.0000
  F   F5        1.0  0.9159898945924426  0.09443655368390658  0.3642942520168822  1.0000
  F   F6        1.0  0.08401010586600581  0.9055634464173221  0.6357057481740414  1.0000
  F   F7        1.0  0.9767603391823811  0.14346468407911836  0.6762560553480034  1.0000
  F   F8        1.0  0.023239660182526545  0.8565353160181637  0.3237439448417573  1.0000
  I   I1        1.0  0.6401315729704139  0.7308780034376936  0.5525754276935717  1.0000
  I   I2        1.0  0.3598684274880347  0.2691219966635351  0.44742457249735196  1.0000
  I   I3        1.0  0.8685312283466499  0.31935570602563096  0.5534938796882853  1.0000
  I   I4        1.0  0.13146877101825782  0.6806442940716511  0.44650612050147526  1.0000
