data_image0
_chemical_formula_structural       H42C48N4O8S2Cl2
_chemical_formula_sum              "H42 C48 N4 O8 S2 Cl2"
_cell_length_a       7.36309734967826
_cell_length_b       9.879950031987848
_cell_length_c       15.634491691832643
_cell_angle_alpha    104.9955686916771
_cell_angle_beta     92.33792662682924
_cell_angle_gamma    97.95467111724885

_space_group_name_H-M_alt    "P 1"
_space_group_IT_number       1

loop_
  _space_group_symop_operation_xyz
  'x, y, z'

loop_
  _atom_site_type_symbol
  _atom_site_label
  _atom_site_symmetry_multiplicity
  _atom_site_fract_x
  _atom_site_fract_y
  _atom_site_fract_z
  _atom_site_occupancy
  H   H1        1.0  0.6628694578111289  0.8486601702887893  0.09478536783046301  1.0000
  H   H2        1.0  0.3371305433441365  0.1513398296835469  0.9052146325284669  1.0000
  H   H3        1.0  0.22459830164577077  0.9686441821931623  0.2607752361062775  1.0000
  H   H4        1.0  0.7754016983361771  0.03135581879836076  0.7392247642542186  1.0000
  H   H5        1.0  0.7640025480018768  0.6435858628258778  0.3263285338081704  1.0000
  H   H6        1.0  0.23599745168359984  0.356414136861376  0.6736714658870735  1.0000
  H   H7        1.0  0.7797641703057375  0.4553055823248809  0.4028301805496569  1.0000
  H   H8        1.0  0.2202358295650792  0.5446944183847601  0.5971698191465464  1.0000
  H   H9        1.0  0.17740464417700147  0.5007336497369684  0.27639460976510366  1.0000
  H   H10       1.0  0.8225953556938151  0.4992663509726724  0.7236053899310998  1.0000
  H   H11       1.0  0.35516253591808816  0.22881920342660172  0.4458369669240582  1.0000
  H   H12       1.0  0.6448374637673886  0.7711807962606522  0.5541630327711857  1.0000
  H   H13       1.0  0.5870288663191707  0.30157443663592437  0.48796573034279295  1.0000
  H   H14       1.0  0.41297113347743725  0.698425563333212  0.5120342700167437  1.0000
  H   H15       1.0  0.5441823742113734  0.1742289014748326  0.3849984835477059  1.0000
  H   H16       1.0  0.4558176254741034  0.8257710982124213  0.6150015161475381  1.0000
  H   H17       1.0  0.4487721782213074  0.4482668218875757  0.0907235052442738  1.0000
  H   H18       1.0  0.5512278216495093  0.5517331788220651  0.9092764944519296  1.0000
  H   H19       1.0  0.6277072784575844  0.2572904256453049  0.02893094734883535  1.0000
  H   H20       1.0  0.3722927212278924  0.7427095740419491  0.9710690523464086  1.0000
  H   H21       1.0  0.132761769689586  0.5457263652218975  0.12575213999658758  1.0000
  H   H22       1.0  0.8672382302923619  0.4542736357696255  0.8742478603639086  1.0000
  H   H23       1.0  0.9528125050706947  0.7398057610514372  0.18566984664388556  1.0000
  H   H24       1.0  0.04718749472591332  0.260194238917699  0.8143301537156511  1.0000
  H   H25       1.0  0.8182326193788966  0.1170334433018242  0.11505540799244536  1.0000
  H   H26       1.0  0.1817673803065802  0.8829665563854296  0.8849445917027985  1.0000
  H   H27       1.0  0.022385089895134713  0.21189785428286828  0.18255633677060343  1.0000
  H   H28       1.0  0.9776149112601306  0.7881021456894677  0.8174436635883263  1.0000
  H   H29       1.0  0.03580113923122661  0.05355950886280707  0.09619992783761734  1.0000
  H   H30       1.0  0.9641988604542501  0.9464404908244468  0.9038000718576265  1.0000
  H   H31       1.0  0.1561303295192084  0.26345678505480047  0.33400607006251787  1.0000
  H   H32       1.0  0.8438696704627395  0.7365432159367226  0.6659939302979782  1.0000
  H   H33       1.0  0.8307803116533157  0.24808459573348404  0.6570562834222979  1.0000
  H   H34       1.0  0.16921968803216106  0.7519154039537699  0.3429437162729459  1.0000
  H   H35       1.0  0.08308715716676367  0.331210241471801  0.4832930625991265  1.0000
  H   H36       1.0  0.9169128425187132  0.6687897582154531  0.5167069370961174  1.0000
  H   H37       1.0  0.82567782670196  0.9468479233032647  0.2924142832120052  1.0000
  H   H38       1.0  0.17432217298351674  0.053152076383989125  0.7075857164832386  1.0000
  H   H39       1.0  0.6486976278850822  0.8783884609533773  0.41263617380529344  1.0000
  H   H40       1.0  0.3513023718003946  0.12161153873387669  0.5873638258899506  1.0000
  H   H41       1.0  0.6925246976094591  0.03310260362488175  0.5666135731316706  1.0000
  H   H42       1.0  0.30747530354580627  0.9668973963474542  0.4333864272272592  1.0000
  C   C1        1.0  0.45078700217126644  0.9284254424338262  0.17746612438935983  1.0000
  C   C2        1.0  0.5492129975142104  0.07157455725342778  0.8225338753058841  1.0000
  C   C3        1.0  0.5729642307577826  0.8343296907662221  0.146546724940824  1.0000
  C   C4        1.0  0.4270357689276942  0.1656703089210318  0.8534532747544199  1.0000
  C   C5        1.0  0.574771513073565  0.7168291024678684  0.18060061715562017  1.0000
  C   C6        1.0  0.42522848797056917  0.2831708972225853  0.8193993825390169  1.0000
  C   C7        1.0  0.45503446688225846  0.7000371560160761  0.2467388660677063  1.0000
  C   C8        1.0  0.5449655329143495  0.29996284395306017  0.7532611342918304  1.0000
  C   C9        1.0  0.3266719996162371  0.8994110620153519  0.23808011703424645  1.0000
  C   C10       1.0  0.6733280001803709  0.1005889379537843  0.7619198833252903  1.0000
  C   C11       1.0  0.4675318382359307  0.5887219703306826  0.29369987177712353  1.0000
  C   C12       1.0  0.5324681615606772  0.41127802963845356  0.7063001285824131  1.0000
  C   C13       1.0  0.6385514347491447  0.5733649325978821  0.3304903811815596  1.0000
  C   C14       1.0  0.3614485649363321  0.4266350670893718  0.6695096185136843  1.0000
  C   C15       1.0  0.6480870974540657  0.4690917720033235  0.3745022702100771  1.0000
  C   C16       1.0  0.35191290223141103  0.5309082276839303  0.6254977294851668  1.0000
  C   C17       1.0  0.4876027629345181  0.37997603453436646  0.3820687689557997  1.0000
  C   C18       1.0  0.5123972367509587  0.6200239651528875  0.6179312307394442  1.0000
  C   C19       1.0  0.31399206587387707  0.4954769808133425  0.3038732975500825  1.0000
  C   C20       1.0  0.6860079351702572  0.5045230188771113  0.6961267021445546  1.0000
  C   C21       1.0  0.4920716121987567  0.26524911235310306  0.42798876483891385  1.0000
  C   C22       1.0  0.5079283889565086  0.734750887619233  0.5720112355200161  1.0000
  C   C23       1.0  0.6891572173765382  0.6066128307634223  0.14366606780699134  1.0000
  C   C24       1.0  0.31084278249427844  0.3933871699462186  0.8563339318892119  1.0000
  C   C25       1.0  0.5983376225776539  0.4706185115841608  0.09890995073186207  1.0000
  C   C26       1.0  0.40166237710782277  0.529381488103093  0.9010900489633819  1.0000
  C   C27       1.0  0.6983200107285301  0.3626025090207909  0.06419830031751939  1.0000
  C   C28       1.0  0.30167998906807797  0.6373974909483455  0.9358017000420173  1.0000
  C   C29       1.0  0.8903332829334613  0.39060955754691906  0.07568024667626319  1.0000
  C   C30       1.0  0.10966671686314676  0.6093904424222173  0.9243197536832735  1.0000
  C   C31       1.0  0.9830867523329169  0.5255008692984157  0.11889210420002459  1.0000
  C   C32       1.0  0.016913247463691074  0.4744991306707206  0.881107896159512  1.0000
  C   C33       1.0  0.8816324865300984  0.6340467989670784  0.15219252447376241  1.0000
  C   C34       1.0  0.11836751315537855  0.36595320072017556  0.8478074752214815  1.0000
  C   C35       1.0  0.967328194267002  0.14746299014721098  0.11635854874377391  1.0000
  C   C36       1.0  0.03267180688826337  0.8525370098251249  0.8836414516151558  1.0000
  C   C37       1.0  0.9886570399337811  0.23135006795630175  0.4669104296370759  1.0000
  C   C38       1.0  0.011342960048166782  0.7686499330352214  0.5330895707234202  1.0000
  C   C39       1.0  0.9657912247057323  0.14197051324734083  0.38025182996535967  1.0000
  C   C40       1.0  0.03420877497974452  0.8580294864399132  0.6197481697298842  1.0000
  C   C41       1.0  0.841497578235888  0.014627443172462205  0.36016220041422325  1.0000
  C   C42       1.0  0.15850242156072  0.985372556796674  0.6398377999453133  1.0000
  C   C43       1.0  0.7444482782479586  0.977497107533324  0.4274953361066483  1.0000
  C   C44       1.0  0.25555172143751814  0.022502892153929886  0.5725046635885955  1.0000
  C   C45       1.0  0.7681647063075059  0.06379322999451037  0.5144420886244921  1.0000
  C   C46       1.0  0.23183529348910223  0.9362067699746259  0.4855579117350445  1.0000
  C   C47       1.0  0.8920582430773416  0.19114274848551238  0.5340242740443674  1.0000
  C   C48       1.0  0.10794175671926647  0.808857251483624  0.46597572631516937  1.0000
  N   N1        1.0  0.33054730104326935  0.7879626656403691  0.2715577562169849  1.0000
  N   N2        1.0  0.6694526986422075  0.2120373340468848  0.728442243478259  1.0000
  N   N3        1.0  0.32386199015047906  0.39468101126963306  0.34645923892348396  1.0000
  N   N4        1.0  0.6761380095349978  0.6053189884176209  0.65354076077176  1.0000
  O   O1        1.0  0.20781924199019433  0.2986477935643478  0.045395717419140474  1.0000
  O   O2        1.0  0.7921807576952825  0.7013522061229062  0.9546042822761034  1.0000
  O   O3        1.0  0.9243664263678938  0.16198424803758157  0.9519764989950915  1.0000
  O   O4        1.0  0.0756335734287142  0.8380157519315546  0.0480235013644452  1.0000
  O   O5        1.0  0.06210950036760529  0.17201326424258623  0.313386585929015  1.0000
  O   O6        1.0  0.9378904993178715  0.8279867354446676  0.6866134137662289  1.0000
  O   O7        1.0  0.9235428512709014  0.27999613940088014  0.6176528406549483  1.0000
  O   O8        1.0  0.0764571498843639  0.7200038605714558  0.38234715970398153  1.0000
  S   S1        1.0  0.011512860512429113  0.24600516867520258  0.038242666038213774  1.0000
  S   S2        1.0  0.9884871392841788  0.7539948312939336  0.9617573343213229  1.0000
  Cl  Cl1       1.0  0.44740343055173004  0.07773185794657929  0.14010666847551068  1.0000
  Cl  Cl2       1.0  0.552596569430218  0.9222681430449439  0.8598933318849855  1.0000
