data_image0
_chemical_formula_structural       H104C96N12O4S4Br4
_chemical_formula_sum              "H104 C96 N12 O4 S4 Br4"
_cell_length_a       8.187346772208388
_cell_length_b       11.680445887721712
_cell_length_c       24.112658674546715
_cell_angle_alpha    75.22350471740084
_cell_angle_beta     85.56891643041965
_cell_angle_gamma    77.97266238443194

_space_group_name_H-M_alt    "P 1"
_space_group_IT_number       1

loop_
  _space_group_symop_operation_xyz
  'x, y, z'

loop_
  _atom_site_type_symbol
  _atom_site_label
  _atom_site_symmetry_multiplicity
  _atom_site_fract_x
  _atom_site_fract_y
  _atom_site_fract_z
  _atom_site_occupancy
  H   H1        1.0  0.4487086343566337  0.8180359049568355  0.1628181287268351  1.0000
  H   H2        1.0  0.551291365642295  0.18196409511391123  0.8371818715497041  1.0000
  H   H3        1.0  0.15342520623030687  0.06602971266693672  0.9796813056516228  1.0000
  H   H4        1.0  0.8465747937686218  0.9339702874038104  0.02031869462491641  1.0000
  H   H5        1.0  0.566587729338163  0.9656107591685796  0.23774660456127544  1.0000
  H   H6        1.0  0.4334122706858348  0.03438924111941808  0.7622533952862331  1.0000
  H   H7        1.0  0.22298197627201433  0.12317728361400954  0.24996229896857597  1.0000
  H   H8        1.0  0.7770180239936451  0.8768227155804126  0.7500377013099024  1.0000
  H   H9        1.0  0.4189780696929811  0.1534084635262485  0.265006541056419  1.0000
  H   H10       1.0  0.5810219303310169  0.8465915367617491  0.7349934587910897  1.0000
  H   H11       1.0  0.4457364689349155  0.8037626098397206  0.3047463840845433  1.0000
  H   H12       1.0  0.5542635310640133  0.19623739023102635  0.6952536161919958  1.0000
  H   H13       1.0  0.24158553321229  0.8743531511427183  0.2792522922813551  1.0000
  H   H14       1.0  0.7584144668117079  0.1256468491452794  0.7207477075661535  1.0000
  H   H15       1.0  0.86880900356727  0.20367357343397952  0.4045735667951136  1.0000
  H   H16       1.0  0.13119099669838935  0.7963264257604424  0.5954264334833649  1.0000
  H   H17       1.0  0.9554110620514641  0.8178116686839223  0.45864522687121395  1.0000
  H   H18       1.0  0.044588938239264624  0.18218833072775018  0.541354772978234  1.0000
  H   H19       1.0  0.261922004908877  0.229145165085411  0.3345598337665411  1.0000
  H   H20       1.0  0.7380779951151208  0.7708548352025866  0.6654401660809676  1.0000
  H   H21       1.0  0.0631357523520063  0.30094272242273423  0.3552006271160158  1.0000
  H   H22       1.0  0.9368642476719916  0.6990572778652634  0.6447993727314928  1.0000
  H   H23       1.0  0.08989616530103156  0.2565108546508745  0.2897484984993809  1.0000
  H   H24       1.0  0.9101038335028152  0.7434891456309304  0.7102515013509371  1.0000
  H   H25       1.0  0.6922767408345604  0.9333567263704484  0.4858172521228961  1.0000
  H   H26       1.0  0.3077232591894374  0.06664327391754922  0.5141827477246126  1.0000
  H   H27       1.0  0.636685630399256  0.09070374002713587  0.45493856080497735  1.0000
  H   H28       1.0  0.363314369624742  0.9092962602608617  0.5450614390425312  1.0000
  H   H29       1.0  0.7694692942486986  0.03654774743478564  0.514568177297029  1.0000
  H   H30       1.0  0.23053070601696077  0.9634522517596362  0.4854318229814495  1.0000
  H   H31       1.0  0.3676946409988028  0.7588598105493964  0.4052970440146514  1.0000
  H   H32       1.0  0.6323053590001257  0.24114018952135088  0.5947029562618877  1.0000
  H   H33       1.0  0.22152265605597032  0.7323455133931606  0.3624467455524667  1.0000
  H   H34       1.0  0.7784773439429585  0.26765448667758646  0.6375532547240724  1.0000
  H   H35       1.0  0.18966832783885784  0.7011940835710243  0.43718413981167903  1.0000
  H   H36       1.0  0.8103316721851399  0.2988059167169734  0.5628158600358296  1.0000
  H   H37       1.0  0.6077983104730087  0.9709717461614741  0.3354466669359048  1.0000
  H   H38       1.0  0.39220168955098916  0.02902825412652372  0.6645533329116038  1.0000
  H   H39       1.0  0.5033195207617098  0.8959838763967481  0.397286024839109  1.0000
  H   H40       1.0  0.4966804792622879  0.10401612389124948  0.6027139750083996  1.0000
  H   H41       1.0  0.47502818014469045  0.05546613704867441  0.3785290687051366  1.0000
  H   H42       1.0  0.5249718198793074  0.9445338632393231  0.6214709311423721  1.0000
  H   H43       1.0  0.2738669861672895  0.19563802032315494  0.15599112209503463  1.0000
  H   H44       1.0  0.7261330140983697  0.8043619788712669  0.8440088781834438  1.0000
  H   H45       1.0  0.3895135211523736  0.8022987915915946  0.965552445327828  1.0000
  H   H46       1.0  0.6104864776514733  0.19770120869021007  0.034447554522489994  1.0000
  H   H47       1.0  0.3260104325753651  0.8064909934454767  0.8689490710031315  1.0000
  H   H48       1.0  0.6739895674486328  0.1935090068425211  0.13105092884437713  1.0000
  H   H49       1.0  0.9733907569052487  0.0992324680673268  0.7690575023664226  1.0000
  H   H50       1.0  0.026609243118749255  0.9007675322206709  0.23094249748108608  1.0000
  H   H51       1.0  0.9298490944572989  0.2003005087887339  0.85000743685094  1.0000
  H   H52       1.0  0.07015090554162967  0.7996994912820131  0.14999256342559916  1.0000
  H   H53       1.0  0.3381819370778828  0.7341361015533076  0.0834515760541515  1.0000
  H   H54       1.0  0.6618180629210461  0.2658638985174393  0.9165484242223877  1.0000
  H   H55       1.0  0.38635670342065453  0.43012223174402087  0.060057973282767775  1.0000
  H   H56       1.0  0.613643296603343  0.5698777685439769  0.9399420265647408  1.0000
  H   H57       1.0  0.6200812688502526  0.7324189795931498  0.2481746547512815  1.0000
  H   H58       1.0  0.3799187311737453  0.26758102069484774  0.7518253450962271  1.0000
  H   H59       1.0  0.9241088069117848  0.69869015063252  0.22780727831315614  1.0000
  H   H60       1.0  0.07589119308714387  0.30130984943822703  0.772192721963383  1.0000
  H   H61       1.0  0.9358996039736638  0.5388158826368341  0.2485704901936097  1.0000
  H   H62       1.0  0.06410039605033407  0.46118411765116335  0.7514295096538991  1.0000
  H   H63       1.0  0.7053299423889897  0.4823683773671699  0.3313666742786393  1.0000
  H   H64       1.0  0.29467005763500803  0.5176316229208278  0.6686333255688693  1.0000
  H   H65       1.0  0.5859986835410764  0.61530418395371  0.34938896945341363  1.0000
  H   H66       1.0  0.4140013164829214  0.3846958163342876  0.650611030394095  1.0000
  H   H67       1.0  0.4216243768652823  0.44024473241252826  0.3604900204213846  1.0000
  H   H68       1.0  0.578375623400377  0.5597552667818937  0.6395099798570938  1.0000
  H   H69       1.0  0.0617736743756966  0.3510075312567178  0.4949650121634032  1.0000
  H   H70       1.0  0.9382263259150319  0.6489924681549547  0.5050349876860447  1.0000
  H   H71       1.0  0.15376478535602742  0.6869847662425019  0.2716005271603414  1.0000
  H   H72       1.0  0.8462352146679706  0.31301523404549575  0.7283994726871672  1.0000
  H   H73       1.0  0.20285347638498802  0.5521175613028236  0.24835677318087107  1.0000
  H   H74       1.0  0.79714652363901  0.447882438985174  0.7516432266666375  1.0000
  H   H75       1.0  0.3543573348022079  0.5937040190437594  0.2832023636534731  1.0000
  H   H76       1.0  0.6456426639765698  0.4062959810207948  0.7167976366258753  1.0000
  H   H77       1.0  0.3486571628788174  0.24820171460211532  0.5086099760322986  1.0000
  H   H78       1.0  0.6513428371201114  0.7517982854686317  0.49139002424424055  1.0000
  H   H79       1.0  0.4751904970826403  0.35788624705027644  0.4832282718183025  1.0000
  H   H80       1.0  0.5248095029413575  0.6421137532377215  0.5167717280292061  1.0000
  H   H81       1.0  0.47976580630846827  0.2440329032329233  0.4467408122677338  1.0000
  H   H82       1.0  0.5202341937155296  0.7559670970550745  0.5532591875797748  1.0000
  H   H83       1.0  0.7144719431110094  0.5730245079806323  0.4327984048271863  1.0000
  H   H84       1.0  0.28552805691298855  0.42697549230736515  0.5672015950203223  1.0000
  H   H85       1.0  0.7929145560276546  0.4494072458321534  0.4897691706261332  1.0000
  H   H86       1.0  0.20708544426307385  0.5505927535795192  0.5102308292233146  1.0000
  H   H87       1.0  0.7159342737974647  0.4244295916299978  0.42807749657034067  1.0000
  H   H88       1.0  0.28406572646819467  0.5755704075644242  0.5719225037081377  1.0000
  H   H89       1.0  0.7421214751827478  0.8110326880854224  0.3053681346314468  1.0000
  H   H90       1.0  0.2578785248412501  0.1889673122025752  0.6946318652160618  1.0000
  H   H91       1.0  0.9532795843843093  0.7806518396101516  0.3254027482707782  1.0000
  H   H92       1.0  0.04672041563968855  0.2193481606778461  0.6745972515767305  1.0000
  H   H93       1.0  0.797083510431561  0.7449085802670177  0.3779782767948125  1.0000
  H   H94       1.0  0.20291648985916766  0.2550914191446547  0.6220217230546355  1.0000
  H   H95       1.0  0.7066589808360696  0.3836438402177742  0.2503703337250061  1.0000
  H   H96       1.0  0.29334101796777734  0.6163561600640305  0.7496296661253118  1.0000
  H   H97       1.0  0.1528794159513952  0.7106592621916713  0.01584303336451711  1.0000
  H   H98       1.0  0.8471205840475334  0.2893407378790759  0.984156966912022  1.0000
  H   H99       1.0  0.03591447827753002  0.6927062008826806  0.9306139195678359  1.0000
  H   H100      1.0  0.9640855220131986  0.3072937985289918  0.06938608028161194  1.0000
  H   H101      1.0  0.13561096441179674  0.35567357021513896  0.8794293187618437  1.0000
  H   H102      1.0  0.8643890356122013  0.6443264300728586  0.120570681085665  1.0000
  H   H103      1.0  0.3241730668286209  0.2624134605128664  0.9610392398528484  1.0000
  H   H104      1.0  0.6758269331953768  0.7375865397751313  0.03896075999466014  1.0000
  C   C1        1.0  0.4291741719921169  0.9810293835449154  0.23704417188480706  1.0000
  C   C2        1.0  0.570825828031881  0.01897061674308223  0.7629558279627016  1.0000
  C   C3        1.0  0.3482522473782379  0.08253604686498968  0.2665642984622118  1.0000
  C   C4        1.0  0.6517477529124907  0.9174639525466828  0.7334357013872361  1.0000
  C   C5        1.0  0.3393057794756823  0.9869004221291483  0.32477049405346814  1.0000
  C   C6        1.0  0.6606942205483156  0.013099578158849287  0.6752295057940405  1.0000
  C   C7        1.0  0.3629342954654286  0.8906791500331482  0.2882759105869116  1.0000
  C   C8        1.0  0.6370657045585693  0.10932085025484947  0.7117240892605972  1.0000
  C   C9        1.0  0.18081253658594829  0.9970820550855805  0.36208489756667994  1.0000
  C   C10       1.0  0.8191874634380495  0.0029179452024172534  0.6379151022808287  1.0000
  C   C11       1.0  0.08400265375162258  0.11040037375094357  0.3661599234676894  1.0000
  C   C12       1.0  0.9159973462723753  0.889599626537054  0.6338400763798193  1.0000
  C   C13       1.0  0.9404435659412552  0.11500777016394052  0.40182409269144603  1.0000
  C   C14       1.0  0.0595564340827426  0.884992230124057  0.5981759071560626  1.0000
  C   C15       1.0  0.8891461154869243  0.011158788841059092  0.4347603266572791  1.0000
  C   C16       1.0  0.1108538845370736  0.9888412114469385  0.5652396731902296  1.0000
  C   C17       1.0  0.988846095699622  0.9004594712586832  0.4317565096042224  1.0000
  C   C18       1.0  0.011153903079155496  0.09954052880587087  0.568243490675126  1.0000
  C   C19       1.0  0.13349191539200242  0.8909815492175803  0.3968951231205276  1.0000
  C   C20       1.0  0.8665080846069263  0.10901845085316694  0.6031048771560116  1.0000
  C   C21       1.0  0.1278433632454096  0.22971695345028578  0.3347677378448265  1.0000
  C   C22       1.0  0.8721566370453189  0.7702830459613866  0.6652322620046214  1.0000
  C   C23       1.0  0.738890594098497  0.018049688461985163  0.47446453012542844  1.0000
  C   C24       1.0  0.2611094059004316  0.981950311608762  0.5255354701511108  1.0000
  C   C25       1.0  0.2336539910140719  0.7653015286214417  0.4003568977270747  1.0000
  C   C26       1.0  0.7663460089848567  0.23469847144930553  0.5996431025494645  1.0000
  C   C27       1.0  0.49067484277363593  0.9757555813376598  0.360903312132896  1.0000
  C   C28       1.0  0.509325157250362  0.024244418950337836  0.6390966877146126  1.0000
  C   C29       1.0  0.3772910196119086  0.0007639659814863749  0.17694320195672703  1.0000
  C   C30       1.0  0.62270898038702  0.9992360340892605  0.8230567983198122  1.0000
  C   C31       1.0  0.3066375597398986  0.11037310886165963  0.14401657402127224  1.0000
  C   C32       1.0  0.6933624402840992  0.8896268914263381  0.8559834258262364  1.0000
  C   C33       1.0  0.3514086589401795  0.9509571091977038  0.09168589063497008  1.0000
  C   C34       1.0  0.6485913410587492  0.04904289087304328  0.908314109641569  1.0000
  C   C35       1.0  0.30761225823233146  0.8908054021043231  0.9624452356351673  1.0000
  C   C36       1.0  0.6923877417916663  0.10919459818367466  0.037554764212341475  1.0000
  C   C37       1.0  0.21857393026646596  0.9496932090058694  0.9101589824511921  1.0000
  C   C38       1.0  0.7814260697324628  0.05030679106487747  0.08984101782534712  1.0000
  C   C39       1.0  0.24014971206234584  0.8930510618481893  0.8642517055681282  1.0000
  C   C40       1.0  0.7598502879365829  0.10694893822255779  0.13574829470841096  1.0000
  C   C41       1.0  0.15266690422604187  0.9475785184806664  0.8142441703574761  1.0000
  C   C42       1.0  0.8473330957979561  0.05242148180733106  0.18575582949003253  1.0000
  C   C43       1.0  0.040950821252978865  0.05798048403806434  0.8085912484106493  1.0000
  C   C44       1.0  0.9590491790126807  0.9420195151563576  0.19140875186782905  1.0000
  C   C45       1.0  0.017336607225371226  0.11463211945955676  0.8535757547733109  1.0000
  C   C46       1.0  0.9826633927986266  0.8853678808284409  0.1464242450741978  1.0000
  C   C47       1.0  0.10543119580361522  0.06271429727984869  0.9043034875912592  1.0000
  C   C48       1.0  0.8945688041953134  0.9372857027908984  0.09569651268527997  1.0000
  C   C49       1.0  0.6810802133383468  0.6368292187797027  0.25691884026570483  1.0000
  C   C50       1.0  0.3189197866605818  0.3631707812910446  0.7430811600108344  1.0000
  C   C51       1.0  0.8725111342146785  0.6255720513465434  0.25678285761496006  1.0000
  C   C52       1.0  0.12748886578425006  0.37442794872420365  0.7432171426615791  1.0000
  C   C53       1.0  0.8608128598714061  0.6198127725544734  0.3224606612316692  1.0000
  C   C54       1.0  0.1391871401275227  0.38018722751627343  0.67753933904487  1.0000
  C   C55       1.0  0.6890324950563628  0.581077894885126  0.3222816882354381  1.0000
  C   C56       1.0  0.31096750523436584  0.4189221045265467  0.6777183116140096  1.0000
  C   C57       1.0  0.9976584269210655  0.5350301448334602  0.3603891734866901  1.0000
  C   C58       1.0  0.0023415731029322114  0.4649698554545375  0.6396108263608186  1.0000
  C   C59       1.0  0.1666424958398939  0.5241336254107534  0.341002852835514  1.0000
  C   C60       1.0  0.833357504184104  0.47586637487724415  0.6589971470119946  1.0000
  C   C61       1.0  0.2924705587587953  0.44823061817049925  0.3767261940370958  1.0000
  C   C62       1.0  0.7075294415068639  0.5517693810239228  0.6232738062413825  1.0000
  C   C63       1.0  0.25826830259700334  0.38364999209347794  0.4321200482713937  1.0000
  C   C64       1.0  0.7417316974269945  0.6163500081945196  0.5678799515761149  1.0000
  C   C65       1.0  0.09198326463349704  0.3977847704961271  0.4513048637360721  1.0000
  C   C66       1.0  0.908016735390501  0.6022152297918706  0.5486951361114366  1.0000
  C   C67       1.0  0.9615417649082728  0.47189048869203454  0.41685463939991013  1.0000
  C   C68       1.0  0.03845823509065581  0.5281095113787125  0.583145360876629  1.0000
  C   C69       1.0  0.2210504183578181  0.592976513536175  0.2831900853858299  1.0000
  C   C70       1.0  0.7789495819078414  0.4070234856582469  0.7168099148926484  1.0000
  C   C71       1.0  0.3968493863160094  0.3044517947525671  0.46968013133274894  1.0000
  C   C72       1.0  0.6031506137079885  0.6955482055354305  0.5303198685147597  1.0000
  C   C73       1.0  0.7872437324876823  0.48049711101524245  0.4429423662103429  1.0000
  C   C74       1.0  0.21275626780304632  0.5195028883964301  0.5570576336391049  1.0000
  C   C75       1.0  0.8366918990965662  0.7460962286579305  0.3332992009333185  1.0000
  C   C76       1.0  0.16330810090236242  0.25390377141281656  0.6667007993432206  1.0000
  C   C77       1.0  0.6066641856116264  0.5798172024835905  0.21901039783502255  1.0000
  C   C78       1.0  0.393335814654033  0.42018279671083153  0.7809896024434557  1.0000
  C   C79       1.0  0.6303160191041361  0.4589754090451606  0.22152905778505305  1.0000
  C   C80       1.0  0.36968398091986165  0.5410245912428371  0.7784709420624556  1.0000
  C   C81       1.0  0.4481029403538636  0.5889195752040611  0.1462737145173825  1.0000
  C   C82       1.0  0.5518970596701342  0.4110804250839364  0.8537262853301262  1.0000
  C   C83       1.0  0.22108167349148006  0.616813297673643  0.023861427625646907  1.0000
  C   C84       1.0  0.7789183265325178  0.38318670261435456  0.9761385722218616  1.0000
  C   C85       1.0  0.2012513310841248  0.5453905328607292  0.9848827700929942  1.0000
  C   C86       1.0  0.7987486692066038  0.4546094665509433  0.015117229756453533  1.0000
  C   C87       1.0  0.09776208121177521  0.5982654231344638  0.93728379619975  1.0000
  C   C88       1.0  0.9022379187871536  0.4017345769362832  0.06271620407678917  1.0000
  C   C89       1.0  0.07576568001802293  0.5299470830384286  0.9000592758492423  1.0000
  C   C90       1.0  0.9242343199809058  0.47005291703231855  0.09994072442729686  1.0000
  C   C91       1.0  0.1546391876774406  0.40883468169044773  0.9085748895118536  1.0000
  C   C92       1.0  0.845360812613288  0.5911653177212249  0.09142511033759415  1.0000
  C   C93       1.0  0.2597534041124489  0.35612678872275133  0.95467226352305  1.0000
  C   C94       1.0  0.7402465959115491  0.6438732115652464  0.04532773632445866  1.0000
  C   C95       1.0  0.28399321146575696  0.4225254828293867  0.9930685369896781  1.0000
  C   C96       1.0  0.7160067885582408  0.5774745174586111  0.006931462857830515  1.0000
  N   N1        1.0  0.40387063617143476  0.9112733982360777  0.14662613242853217  1.0000
  N   N2        1.0  0.5961293640942245  0.08872660095834443  0.8533738678499462  1.0000
  N   N3        1.0  0.36206674154484164  0.8807261807973583  0.05558777928010635  1.0000
  N   N4        1.0  0.6379332587208176  0.11927381839706357  0.9444122209983721  1.0000
  N   N5        1.0  0.28804159833691734  0.9427050229736431  0.005073864331044611  1.0000
  N   N6        1.0  0.7119584016870804  0.057294977314354636  0.994926135516464  1.0000
  N   N7        1.0  0.5020719265181723  0.6535405998066357  0.1761924430998731  1.0000
  N   N8        1.0  0.4979280734807562  0.3464594002641115  0.8238075571766661  1.0000
  N   N9        1.0  0.3432758919566488  0.640155336355489  0.10145077097026657  1.0000
  N   N10       1.0  0.6567241080422799  0.359844663715258  0.8985492293062726  1.0000
  N   N11       1.0  0.3186606817399361  0.5695209646345805  0.06745590490964895  1.0000
  N   N12       1.0  0.6813393182589925  0.4304790354361665  0.9325440953668903  1.0000
  O   O1        1.0  0.08084834085539408  0.12080548182770985  0.9467774830955032  1.0000
  O   O2        1.0  0.9191516591435345  0.8791945182430372  0.05322251718103591  1.0000
  O   O3        1.0  0.38561885341292446  0.367499504317701  0.037853785562116264  1.0000
  O   O4        1.0  0.6143811465860042  0.6325004957530459  0.9621462147144229  1.0000
  S   S1        1.0  0.27022750281932056  0.10540472531901994  0.07517456255962339  1.0000
  S   S2        1.0  0.7297724971796081  0.8945952747517272  0.9248254377169157  1.0000
  S   S3        1.0  0.5202728000905301  0.4338142355830264  0.16895130335118283  1.0000
  S   S4        1.0  0.4797271999083985  0.5661857644877206  0.8310486969253563  1.0000
  Br  Br1       1.0  0.1826801878084251  0.8745475475843497  0.7508214676988794  1.0000
  Br  Br2       1.0  0.8173198122155727  0.12545245270364785  0.24917853214862942  1.0000
  Br  Br3       1.0  0.9336469730352918  0.6000157221246479  0.8358400676055399  1.0000
  Br  Br4       1.0  0.06635302725543675  0.39998427728702474  0.1641599322439079  1.0000
