data_image0
_chemical_formula_structural       H22C36N6O12S2
_chemical_formula_sum              "H22 C36 N6 O12 S2"
_cell_length_a       6.667019912543682
_cell_length_b       9.374499423472423
_cell_length_c       14.099034492426384
_cell_angle_alpha    101.93675840677882
_cell_angle_beta     99.1341363700479
_cell_angle_gamma    101.36435422809058

_space_group_name_H-M_alt    "P 1"
_space_group_IT_number       1

loop_
  _space_group_symop_operation_xyz
  'x, y, z'

loop_
  _atom_site_type_symbol
  _atom_site_label
  _atom_site_symmetry_multiplicity
  _atom_site_fract_x
  _atom_site_fract_y
  _atom_site_fract_z
  _atom_site_occupancy
  H   H1        1.0  0.8131867046506253  0.39299164752091276  0.14766346146257953  1.0000
  H   H2        1.0  0.18681329469844124  0.60700835300175  0.8523365382411762  1.0000
  H   H3        1.0  0.7877232582668414  0.4086000969020958  0.4537865785677466  1.0000
  H   H4        1.0  0.21227674259912044  0.5913999036137512  0.5462134212498302  1.0000
  H   H5        1.0  0.6764485686313151  0.9807059552155946  0.24221905559846665  1.0000
  H   H6        1.0  0.3235514318533239  0.01929404418372964  0.7577809447499756  1.0000
  H   H7        1.0  0.7590480336972927  0.8131497979127797  0.5402553464048159  1.0000
  H   H8        1.0  0.2409519656517738  0.18685020260988305  0.4597446532989399  1.0000
  H   H9        1.0  0.8642713929898139  0.07774038375156034  0.6378555698160542  1.0000
  H   H10       1.0  0.1357286078761479  0.9222596167642867  0.36214443000152263  1.0000
  H   H11       1.0  0.8958884685210265  0.14069321321046682  0.8201107803691403  1.0000
  H   H12       1.0  0.1041115323449352  0.8593067873053801  0.1798892194484364  1.0000
  H   H13       1.0  0.8207798538449096  0.9388397344312176  0.9081585740785216  1.0000
  H   H14       1.0  0.17922014512270545  0.06116026496893149  0.0918414254460082  1.0000
  H   H15       1.0  0.7615405628611633  0.7134143293133072  0.9700812015980089  1.0000
  H   H16       1.0  0.23845943648803175  0.2865856712153468  0.029918798815838143  1.0000
  H   H17       1.0  0.6884085504246877  0.4603769281185157  0.003610231649954313  1.0000
  H   H18       1.0  0.3115914500599514  0.5396230712808086  0.996389768698488  1.0000
  H   H19       1.0  0.5980434710624698  0.23144703778354864  0.8664232218069705  1.0000
  H   H20       1.0  0.4019565294221693  0.7685529616157757  0.13357677854147187  1.0000
  H   H21       1.0  0.5859947888069238  0.24969550994254291  0.6915232472129622  1.0000
  H   H22       1.0  0.4140052120591666  0.7503044905792952  0.30847675331470603  1.0000
  C   C1        1.0  0.7396051652385562  0.17974140252015164  0.18644593811926877  1.0000
  C   C2        1.0  0.2603948356274057  0.8202585979956953  0.8135540616983079  1.0000
  C   C3        1.0  0.786569857283232  0.33578026004950545  0.20565089394799085  1.0000
  C   C4        1.0  0.2134301435827296  0.6642197404663414  0.794349105869586  1.0000
  C   C5        1.0  0.8016321021475724  0.41537166714467916  0.3022571618524229  1.0000
  C   C6        1.0  0.1983678968200427  0.58462833225547  0.697742837672107  1.0000
  C   C7        1.0  0.7723600976185026  0.3447184861126135  0.3782939608892418  1.0000
  C   C8        1.0  0.22763990286613653  0.6552815132867108  0.6217060394592004  1.0000
  C   C9        1.0  0.7271295672459168  0.18855089033157144  0.35465871123270254  1.0000
  C   C10       1.0  0.27287043362017355  0.8114491101902667  0.6453412892949656  1.0000
  C   C11       1.0  0.7087964874172874  0.1024494746728316  0.2591885101970986  1.0000
  C   C12       1.0  0.2912035130672231  0.8975505247205016  0.7408114894412524  1.0000
  C   C13       1.0  0.7734920842458294  0.839100864540256  0.6202534769734747  1.0000
  C   C14       1.0  0.22650791510336574  0.16089913598839808  0.3797465234403724  1.0000
  C   C15       1.0  0.8314226906256398  0.9880483070885157  0.6753969561207197  1.0000
  C   C16       1.0  0.16857730985899955  0.011951692310808879  0.3246030442277226  1.0000
  C   C17       1.0  0.8495414384116312  0.02349431465200139  0.7786337294371483  1.0000
  C   C18       1.0  0.15045856093743518  0.9765056858706612  0.22136627026660743  1.0000
  C   C19       1.0  0.8098014428638397  0.9105246684757163  0.8283549502030745  1.0000
  C   C20       1.0  0.1901985580021222  0.08947533204013064  0.17164504961450242  1.0000
  C   C21       1.0  0.72431002072251  0.612778573652425  0.9095119544566411  1.0000
  C   C22       1.0  0.27568997824523367  0.38722142575371515  0.09048804577798013  1.0000
  C   C23       1.0  0.6833140139900156  0.4709029814312681  0.9278448525261292  1.0000
  C   C24       1.0  0.31668598687607497  0.5290970190905702  0.07215514800153888  1.0000
  C   C25       1.0  0.6327023927365694  0.34096710104494693  0.8497364460419772  1.0000
  C   C26       1.0  0.3672976081295212  0.6590328994768913  0.1502635544856911  1.0000
  C   C27       1.0  0.6256121788606606  0.35045220677054373  0.7520347778487114  1.0000
  C   C28       1.0  0.3743878216239787  0.6495477926287807  0.24796522249973083  1.0000
  C   C29       1.0  0.7379789329674347  0.7259057905932295  0.6706780813887566  1.0000
  C   C30       1.0  0.2620210678985271  0.2740942099226174  0.3293219184288202  1.0000
  C   C31       1.0  0.7560379248943139  0.7598606745685328  0.7750812743919511  1.0000
  C   C32       1.0  0.24396207445475257  0.24013932595413  0.2249187253118046  1.0000
  C   C33       1.0  0.6692338885302423  0.49321801830117895  0.7337386890487508  1.0000
  C   C34       1.0  0.33076611081882407  0.5067819822214839  0.26626131065500486  1.0000
  C   C35       1.0  0.7174601573091612  0.6256881944453905  0.8115893414914064  1.0000
  C   C36       1.0  0.28253984355680056  0.37431180607045633  0.1884106583261704  1.0000
  N   N1        1.0  0.7312657010406641  0.09421198176216518  0.08572809940143686  1.0000
  N   N2        1.0  0.2687342983084023  0.9057880187604976  0.9142719003023189  1.0000
  N   N3        1.0  0.8530323524235005  0.5807801355579805  0.32480958868153614  1.0000
  N   N4        1.0  0.14696764844246135  0.4192198649578664  0.6751904111360407  1.0000
  N   N5        1.0  0.7037288547685794  0.1122232609563292  0.43486117282789366  1.0000
  N   N6        1.0  0.2962711460973824  0.8877767395595176  0.5651388269896831  1.0000
  O   O1        1.0  0.6737978289524517  0.9553615369606157  0.06703126712890085  1.0000
  O   O2        1.0  0.3262021700151633  0.04463846243953325  0.9329687323956289  1.0000
  O   O3        1.0  0.7851433946919295  0.16604202972172724  0.025695567721652924  1.0000
  O   O4        1.0  0.21485660465726558  0.8339579708069268  0.9743044326921942  1.0000
  O   O5        1.0  0.8839693544155492  0.6402881721163852  0.2562626888024387  1.0000
  O   O6        1.0  0.11603064455219451  0.35971182728975504  0.7437373114321826  1.0000
  O   O7        1.0  0.8618232754819459  0.6493634084073446  0.41119496650553455  1.0000
  O   O8        1.0  0.13817672500269335  0.35063659099197975  0.5888050338429078  1.0000
  O   O9        1.0  0.6921504595839354  0.1890824321269232  0.5157566773459008  1.0000
  O   O10       1.0  0.30784953976513113  0.8109175683957396  0.4842433223578549  1.0000
  O   O11       1.0  0.6997956511979143  0.9766146033868923  0.4165214173587319  1.0000
  O   O12       1.0  0.3002043492865962  0.02338539600644091  0.583478582279619  1.0000
  S   S1        1.0  0.6704207122293178  0.5325905218908943  0.6178227404869712  1.0000
  S   S2        1.0  0.3295792871197487  0.46740947863176857  0.3821772592167846  1.0000
