data_image0
_chemical_formula_structural       H36C42N2O6
_chemical_formula_sum              "H36 C42 N2 O6"
_cell_length_a       8.190686994704633
_cell_length_b       9.94430467891698
_cell_length_c       10.133717938322878
_cell_angle_alpha    89.63384827597677
_cell_angle_beta     103.1262965373047
_cell_angle_gamma    96.60494623020998

_space_group_name_H-M_alt    "P 1"
_space_group_IT_number       1

loop_
  _space_group_symop_operation_xyz
  'x, y, z'

loop_
  _atom_site_type_symbol
  _atom_site_label
  _atom_site_symmetry_multiplicity
  _atom_site_fract_x
  _atom_site_fract_y
  _atom_site_fract_z
  _atom_site_occupancy
  H   H1        1.0  0.1360497480655577  0.024307259941699907  0.729642578357452  1.0000
  H   H2        1.0  0.8639502521348668  0.9756927396418034  0.2703574221381295  1.0000
  H   H3        1.0  0.3522429682338908  0.9160618309095062  0.7343291529379825  1.0000
  H   H4        1.0  0.6477570319567865  0.08393816867985052  0.2656708465690203  1.0000
  H   H5        1.0  0.47512683269028405  0.6230542675539694  0.4282780722548577  1.0000
  H   H6        1.0  0.5248731676607169  0.37694573304204365  0.5717219282676956  1.0000
  H   H7        1.0  0.23773976186028134  0.6978584858373418  0.6614039481463103  1.0000
  H   H8        1.0  0.7622602383303959  0.3021415137520147  0.33859605136069254  1.0000
  H   H9        1.0  0.48655282082745444  0.4221961665706062  0.8170297838267931  1.0000
  H   H10       1.0  0.5134471793729699  0.5778038330128971  0.18297021666878838  1.0000
  H   H11       1.0  0.37726346835427965  0.1800443964359135  0.7930059048441509  1.0000
  H   H12       1.0  0.6227365318461447  0.8199556031475898  0.2069940956514306  1.0000
  H   H13       1.0  0.8868575972357885  0.28552813071781386  0.5897793992611382  1.0000
  H   H14       1.0  0.1131424031054654  0.7144718698840524  0.41022060027283647  1.0000
  H   H15       1.0  0.9966096169981378  0.5267056488093196  0.6179238157268704  1.0000
  H   H16       1.0  0.0033903831925394677  0.473294350780037  0.3820761837801323  1.0000
  H   H17       1.0  0.2422017852635102  0.49686546624679523  0.9623184790246807  1.0000
  H   H18       1.0  0.7577982149369141  0.503134533336708  0.0376815214709007  1.0000
  H   H19       1.0  0.17414850594684383  0.5757849852952438  0.1709928027955868  1.0000
  H   H20       1.0  0.8258514942438334  0.42421501429411274  0.829007196711416  1.0000
  H   H21       1.0  0.159780925496186  0.8233025368287479  0.2056581501585718  1.0000
  H   H22       1.0  0.8402190748548148  0.17669746376726517  0.7943418503639815  1.0000
  H   H23       1.0  0.2157201715357649  0.9858960265693147  0.02765264564600508  1.0000
  H   H24       1.0  0.7842798288152362  0.014103974026698446  0.9723473548765482  1.0000
  H   H25       1.0  0.7511671564363913  0.6717505265706298  0.5187857620208151  1.0000
  H   H26       1.0  0.24883284375428608  0.3282494730187267  0.48121423748618775  1.0000
  H   H27       1.0  0.9712280575007756  0.7359248652507998  0.7290455701323942  1.0000
  H   H28       1.0  0.028771942689901686  0.2640751343385567  0.2709544293746085  1.0000
  H   H29       1.0  0.8874475220800288  0.7613648058832359  0.9484032441847661  1.0000
  H   H30       1.0  0.11255247826122526  0.23863519471863065  0.051596755349208455  1.0000
  H   H31       1.0  0.5840477770384893  0.7215649946434405  0.9553067143961768  1.0000
  H   H32       1.0  0.41595222331251164  0.27843500595257265  0.04469328612637665  1.0000
  H   H33       1.0  0.19634963877703876  0.9624157020977324  0.4811268409789372  1.0000
  H   H34       1.0  0.8036503615642151  0.0375842985041341  0.5188731585550374  1.0000
  H   H35       1.0  0.6827999227559209  0.9569258501862722  0.7178944447925846  1.0000
  H   H36       1.0  0.31720007743475637  0.04307414940308428  0.2821055547144181  1.0000
  C   C1        1.0  0.31048364303618914  0.6434856805850858  0.7462269371114193  1.0000
  C   C2        1.0  0.6895163573148119  0.3565143200109273  0.253773063411134  1.0000
  C   C3        1.0  0.24979950919633928  0.4934777510925885  0.719831501232583  1.0000
  C   C4        1.0  0.7502004911546616  0.5065222495034245  0.28016849928997023  1.0000
  C   C5        1.0  0.35475312749625315  0.39332922889141797  0.7664012438435176  1.0000
  C   C6        1.0  0.6452468728450006  0.6066707717104485  0.233598755690457  1.0000
  C   C7        1.0  0.2935161226385222  0.2558005463457346  0.7534447869678578  1.0000
  C   C8        1.0  0.7064838777124787  0.7441994542502784  0.24655521355469548  1.0000
  C   C9        1.0  0.12346320050981757  0.21573668804088378  0.6913022970600441  1.0000
  C   C10       1.0  0.8765367996906067  0.7842633115426195  0.30869770343553743  1.0000
  C   C11       1.0  0.01874703547926102  0.3151164658975651  0.6397853528471393  1.0000
  C   C12       1.0  0.9812529647211634  0.6848835336859381  0.360214647648442  1.0000
  C   C13       1.0  0.08164994042211797  0.45154651168671095  0.6557738743250863  1.0000
  C   C14       1.0  0.9183500597783064  0.5484534878967923  0.3442261261704953  1.0000
  C   C15       1.0  0.2715914166220701  0.6939753497734413  0.8764697591859026  1.0000
  C   C16       1.0  0.7284085835783543  0.30602464981006194  0.12353024130967881  1.0000
  C   C17       1.0  0.23946704367587052  0.6047692966056116  0.9776588385313324  1.0000
  C   C18       1.0  0.7605329565245538  0.39523070297789165  0.022341161964249175  1.0000
  C   C19       1.0  0.20104911255933863  0.649106824106538  0.0961612148299483  1.0000
  C   C20       1.0  0.7989508876410858  0.35089317547696536  0.9038387856656332  1.0000
  C   C21       1.0  0.19358556005857788  0.7868527793226425  0.11555633080414913  1.0000
  C   C22       1.0  0.806414440292423  0.21314722127337057  0.8844436697184042  1.0000
  C   C23       1.0  0.22399927411209836  0.8780060953129565  0.01665414755240497  1.0000
  C   C24       1.0  0.7760007262389026  0.12199390528305665  0.9833458529701483  1.0000
  C   C25       1.0  0.2628042583044945  0.8327239687758656  0.8981324832492024  1.0000
  C   C26       1.0  0.7371957418959298  0.16727603080763764  0.10186751724637907  1.0000
  C   C27       1.0  0.4957631609296628  0.6745117271412373  0.7430193336700089  1.0000
  C   C28       1.0  0.504236839411591  0.32548827346062903  0.2569806658639657  1.0000
  C   C29       1.0  0.5459637654434889  0.6626126268733787  0.619869649199098  1.0000
  C   C30       1.0  0.45403623475693544  0.33738737271012453  0.3801303512964834  1.0000
  C   C31       1.0  0.7162004366699132  0.6826452364998353  0.6154446364068883  1.0000
  C   C32       1.0  0.2837995635207642  0.3173547630895212  0.38455536310011446  1.0000
  C   C33       1.0  0.8388697785790457  0.71858927754247  0.733359927024237  1.0000
  C   C34       1.0  0.1611302216213786  0.28141072204103323  0.26664007347134444  1.0000
  C   C35       1.0  0.7919437132492366  0.733762917097275  0.8560444146222003  1.0000
  C   C36       1.0  0.20805628695118783  0.2662370824862283  0.14395558587338134  1.0000
  C   C37       1.0  0.6214382829818943  0.7110668488744629  0.8596165089677305  1.0000
  C   C38       1.0  0.37856171721853  0.2889331507090404  0.14038349152785096  1.0000
  C   C39       1.0  0.3323291971365123  0.9786360345462338  0.48959547067085657  1.0000
  C   C40       1.0  0.6676708018009486  0.021363965045797264  0.5104045286144531  1.0000
  C   C41       1.0  0.6017163788142761  0.9772225177931403  0.6204332944600303  1.0000
  C   C42       1.0  0.39828362152697777  0.022777482808725935  0.3795667050739443  1.0000
  N   N1        1.0  0.43462144128060803  0.9560594132822793  0.6091194032957992  1.0000
  N   N2        1.0  0.5653785590606458  0.04394058731958709  0.3908805962381754  1.0000
  O   O1        1.0  0.05372550004564466  0.0838541983131845  0.6785684566847563  1.0000
  O   O2        1.0  0.9462744990423929  0.9161458022913566  0.3214315426275252  1.0000
  O   O3        1.0  0.28233862663753584  0.9298671854297926  0.8050639092965253  1.0000
  O   O4        1.0  0.7176613723096722  0.07013281415638506  0.19493609097736297  1.0000
  O   O5        1.0  0.42175855574238896  0.63369019842045  0.504165018720728  1.0000
  O   O6        1.0  0.5782414432048191  0.3663098011657277  0.49583498155316025  1.0000
