data_image0
_chemical_formula_structural       H14C14N2O8
_chemical_formula_sum              "H14 C14 N2 O8"
_cell_length_a       3.8098842531953503
_cell_length_b       8.468183145509741
_cell_length_c       11.324986609331487
_cell_angle_alpha    77.76015053693102
_cell_angle_beta     88.32567569894853
_cell_angle_gamma    80.23008081081606

_space_group_name_H-M_alt    "P 1"
_space_group_IT_number       1

loop_
  _space_group_symop_operation_xyz
  'x, y, z'

loop_
  _atom_site_type_symbol
  _atom_site_label
  _atom_site_symmetry_multiplicity
  _atom_site_fract_x
  _atom_site_fract_y
  _atom_site_fract_z
  _atom_site_occupancy
  H   H1        1.0  0.02102954445717529  0.9748527600371892  0.2372052591525456  1.0000
  H   H2        1.0  0.978970455755833  0.02514723967547057  0.7627947414107636  1.0000
  H   H3        1.0  0.24417985222834446  0.2545264587870676  0.3970759945868414  1.0000
  H   H4        1.0  0.7558201476050409  0.7454735421508508  0.6029240057874574  1.0000
  H   H5        1.0  0.48373731390051977  0.19898782245557423  0.20959856795779214  1.0000
  H   H6        1.0  0.5162626859380747  0.8010121784843462  0.7904014315331382  1.0000
  H   H7        1.0  0.7559739864513394  0.4150701160838551  0.06698811713850154  1.0000
  H   H8        1.0  0.24402601338204608  0.5849298848540632  0.9330118832357973  1.0000
  H   H9        1.0  0.7400674771966889  0.6902557259854113  0.12174600275653777  1.0000
  H   H10       1.0  0.2599325230163192  0.3097442737272485  0.8782539978067715  1.0000
  H   H11       1.0  0.47747745766410327  0.7314428814521943  0.3216018963352198  1.0000
  H   H12       1.0  0.522522542554114  0.2685571182624676  0.6783981033447212  1.0000
  H   H13       1.0  0.2238773109684641  0.5011897093109634  0.45329030339396725  1.0000
  H   H14       1.0  0.7761226892497531  0.4988102904036986  0.5467096962859737  1.0000
  C   C1        1.0  0.03943049353867954  0.031044602683685404  0.0571672088370543  1.0000
  C   C2        1.0  0.9605695066743285  0.9689553970289744  0.9428327917262549  1.0000
  C   C3        1.0  0.9977525402691536  0.9547314655763638  0.4465076076482288  1.0000
  C   C4        1.0  0.002247459564231582  0.0452685353615546  0.5534923927260701  1.0000
  C   C5        1.0  0.49640561943275396  0.3177830645524028  0.22909213118673027  1.0000
  C   C6        1.0  0.5035943807802542  0.6822169351602572  0.770907869376579  1.0000
  C   C7        1.0  0.63824533217399  0.4406899223210046  0.15096212499078196  1.0000
  C   C8        1.0  0.3617546680442271  0.5593100773936573  0.8490378746891589  1.0000
  C   C9        1.0  0.6318971254204031  0.5918241139766819  0.1824181149376628  1.0000
  C   C10       1.0  0.3681028747926051  0.40817588573597796  0.8175818856256466  1.0000
  C   C11       1.0  0.4836839750466851  0.6166716701152676  0.2927416027103437  1.0000
  C   C12       1.0  0.5163160251663231  0.3833283295973923  0.7072583978529656  1.0000
  C   C13       1.0  0.344943775621931  0.49064141329316935  0.36682808758561963  1.0000
  C   C14       1.0  0.655056224591077  0.5093585864194905  0.6331719129776897  1.0000
  N   N1        1.0  0.35488199395230163  0.3459468491062023  0.33416474127955675  1.0000
  N   N2        1.0  0.6451180062659155  0.6540531506084597  0.665835258400384  1.0000
  O   O1        1.0  0.9618362625268806  0.9338453962534694  0.15743935700988257  1.0000
  O   O2        1.0  0.0381637373065047  0.06615460468444895  0.8425606433644163  1.0000
  O   O3        1.0  0.16117539096348227  0.15869838471284192  0.0494462244065191  1.0000
  O   O4        1.0  0.8388246092495258  0.8413016149998179  0.9505537761567902  1.0000
  O   O5        1.0  0.08484096203245108  0.032550746916571116  0.34367847667838824  1.0000
  O   O6        1.0  0.9151590351698974  0.96744925405417  0.6563215228316096  1.0000
  O   O7        1.0  0.9104674430376365  0.8145468308654187  0.46846271955485835  1.0000
  O   O8        1.0  0.08953255718058085  0.18545316884924332  0.5315372801250825  1.0000
