data_image0
_chemical_formula_structural       H32C16N8S2Cl12
_chemical_formula_sum              "H32 C16 N8 S2 Cl12"
_cell_length_a       10.244921478061288
_cell_length_b       12.236107417296479
_cell_length_c       7.185424283030796
_cell_angle_alpha    95.55585398652762
_cell_angle_beta     106.59092095750583
_cell_angle_gamma    94.01258027093888

_space_group_name_H-M_alt    "P 1"
_space_group_IT_number       1

loop_
  _space_group_symop_operation_xyz
  'x, y, z'

loop_
  _atom_site_type_symbol
  _atom_site_label
  _atom_site_symmetry_multiplicity
  _atom_site_fract_x
  _atom_site_fract_y
  _atom_site_fract_z
  _atom_site_occupancy
  H   H1        1.0  0.22545637715638872  0.9883940553072321  0.7061616078925835  1.0000
  H   H2        1.0  0.774543623739154  0.011605945217921696  0.29383839262480604  1.0000
  H   H3        1.0  0.21843096408484017  0.9223385875176747  0.9161419731726037  1.0000
  H   H4        1.0  0.7815690358347949  0.07766141300712891  0.08385802734585726  1.0000
  H   H5        1.0  0.07114087594567409  0.9100187660800005  0.7073101049276458  1.0000
  H   H6        1.0  0.928859123973961  0.08998123444480308  0.2926898955908151  1.0000
  H   H7        1.0  0.908797213790744  0.006661157040405273  0.7132463524294279  1.0000
  H   H8        1.0  0.09120278606154146  0.9933388426653442  0.28675364809201487  1.0000
  H   H9        1.0  0.9269453702272092  0.12804758021005222  0.8852755798315257  1.0000
  H   H10       1.0  0.0730546296924258  0.8719524203147515  0.11472442068693525  1.0000
  H   H11       1.0  0.969691689686371  0.13869435883170636  0.6638729319470797  1.0000
  H   H12       1.0  0.03030830986362116  0.861305640771529  0.3361270671112436  1.0000
  H   H13       1.0  0.19142314677478914  0.7325624233893058  0.5032397105881333  1.0000
  H   H14       1.0  0.8085768530774963  0.26743757631644355  0.49676028993330945  1.0000
  H   H15       1.0  0.044792601726372255  0.6934249377472576  0.5792438142821472  1.0000
  H   H16       1.0  0.95520739782362  0.30657506185597766  0.4207561847761761  1.0000
  H   H17       1.0  0.20586470748477576  0.6441007913620375  0.689873651776209  1.0000
  H   H18       1.0  0.7941352924348594  0.3558992091627663  0.310126348742252  1.0000
  H   H19       1.0  0.9229810283876214  0.4881367305321237  0.19083533991959176  1.0000
  H   H20       1.0  0.077018972205628  0.5118632698905159  0.8091646591346784  1.0000
  H   H21       1.0  0.9036372738082269  0.6218311508911462  0.3014702112719229  1.0000
  H   H22       1.0  0.09636272671767288  0.37816884871243917  0.6985297877853289  1.0000
  H   H23       1.0  0.9939524891624294  0.6095789590080016  0.12344094740641029  1.0000
  H   H24       1.0  0.006047510387562849  0.39042104059523375  0.8765590516519131  1.0000
  H   H25       1.0  0.45892681456245066  0.89668826663934  0.2099804173944455  1.0000
  H   H26       1.0  0.5410731850548911  0.10331173378294964  0.790019581660896  1.0000
  H   H27       1.0  0.578811770904673  0.854856482226103  0.41897712910678836  1.0000
  H   H28       1.0  0.4211882287126687  0.14514351819618676  0.5810228699485531  1.0000
  H   H29       1.0  0.4383947337651036  0.6711178389506666  0.36483134571732395  1.0000
  H   H30       1.0  0.5616052658522382  0.32888216147162314  0.6351686533380175  1.0000
  H   H31       1.0  0.49944225530103126  0.6961289141120167  0.16177530843427376  1.0000
  H   H32       1.0  0.5005577445512542  0.3038710855937328  0.838224692087169  1.0000
  C   C1        1.0  0.1922535288936777  0.1417195449732348  0.005918230594098766  1.0000
  C   C2        1.0  0.8077464707236639  0.8582804554490547  0.9940817684612426  1.0000
  C   C3        1.0  0.16039509095517568  0.9652755246500224  0.7969914771203099  1.0000
  C   C4        1.0  0.8396049088971098  0.03472447505572725  0.20300852340113293  1.0000
  C   C5        1.0  0.969474336101644  0.08551767336597506  0.7785541413430298  1.0000
  C   C6        1.0  0.030525664726549013  0.9144823263401244  0.22144585917734155  1.0000
  C   C7        1.0  0.1799642855994218  0.49090642564139597  0.39085500770896864  1.0000
  C   C8        1.0  0.8200357143202133  0.5090935748834079  0.6091449928094923  1.0000
  C   C9        1.0  0.1382525339766289  0.66545668435933  0.553654558828464  1.0000
  C   C10       1.0  0.8617474659430062  0.3345433161654738  0.446345441689997  1.0000
  C   C11       1.0  0.97181695660363  0.5719190047144074  0.2450573269948981  1.0000
  C   C12       1.0  0.02818304324865564  0.4280809949913421  0.7549426735265446  1.0000
  C   C13       1.0  0.4717949600931302  0.84347856303073  0.32679344519755704  1.0000
  C   C14       1.0  0.5282050408024125  0.15652143749442377  0.6732065553198325  1.0000
  C   C15       1.0  0.43237535049609227  0.7236415732206312  0.24815716967665657  1.0000
  C   C16       1.0  0.5676246494235427  0.2763584273041726  0.7518428308418044  1.0000
  N   N1        1.0  0.14615034897449145  0.2340836881735031  0.05744108336119179  1.0000
  N   N2        1.0  0.8538496518537018  0.7659163115325964  0.9425589171591796  1.0000
  N   N3        1.0  0.11043352493380261  0.06360471940920986  0.8740684094609262  1.0000
  N   N4        1.0  0.8895664746161897  0.9363952801940254  0.1259315895973972  1.0000
  N   N5        1.0  0.13949865207351891  0.4075876614431338  0.24876312960502264  1.0000
  N   N6        1.0  0.8605013478461161  0.59241233908167  0.7512368709134383  1.0000
  N   N7        1.0  0.09912406625916867  0.5700864473125664  0.40334744874515566  1.0000
  N   N8        1.0  0.9008759335931168  0.42991355239318313  0.5966525517762871  1.0000
  S   S1        1.0  0.24509203597392387  0.3168736099891969  0.2399727722750854  1.0000
  S   S2        1.0  0.7549079635760684  0.6831263896140384  0.7600272267832379  1.0000
  Cl  Cl1       1.0  0.36087753850239673  0.11391147324094492  0.10689111971515519  1.0000
  Cl  Cl2       1.0  0.6391224613498888  0.8860885264648046  0.8931088808062876  1.0000
  Cl  Cl3       1.0  0.3753035053821649  0.4104595564598634  0.07267766194129303  1.0000
  Cl  Cl4       1.0  0.6246964941678272  0.589540443143372  0.9273223371170303  1.0000
  Cl  Cl5       1.0  0.3378500856971914  0.5030744132439688  0.5688575686506108  1.0000
  Cl  Cl6       1.0  0.6621499138528008  0.4969255863592665  0.4311424304077125  1.0000
  Cl  Cl7       1.0  0.17679117554593943  0.19887293216891264  0.4969589772376801  1.0000
  Cl  Cl8       1.0  0.8232088243063461  0.8011270675368369  0.5030410232837627  1.0000
  Cl  Cl9       1.0  0.3695416520241498  0.8930485752648543  0.47701658495611426  1.0000
  Cl  Cl10      1.0  0.6304583478281357  0.1069514244408953  0.5229834155653285  1.0000
  Cl  Cl11      1.0  0.25980765658110877  0.7001333586989266  0.08785754109709044  1.0000
  Cl  Cl12      1.0  0.7401923440121406  0.29986664172371297  0.9121424579571795  1.0000
