data_image0
_chemical_formula_structural       H60C74P4I6
_chemical_formula_sum              "H60 C74 P4 I6"
_cell_length_a       9.789564589436658
_cell_length_b       11.288109431219711
_cell_length_c       16.428263526996094
_cell_angle_alpha    90.78979900186681
_cell_angle_beta     111.90129130418102
_cell_angle_gamma    96.99540909771001

_space_group_name_H-M_alt    "P 1"
_space_group_IT_number       1

loop_
  _space_group_symop_operation_xyz
  'x, y, z'

loop_
  _atom_site_type_symbol
  _atom_site_label
  _atom_site_symmetry_multiplicity
  _atom_site_fract_x
  _atom_site_fract_y
  _atom_site_fract_z
  _atom_site_occupancy
  H   H1        1.0  0.6126329004698833  0.5041182384798168  0.0005483900385801739  1.0000
  H   H2        1.0  0.38736710009060604  0.4958817617125157  0.9994516101673256  1.0000
  H   H3        1.0  0.6140125022190127  0.4797096195504467  0.8507452529726838  1.0000
  H   H4        1.0  0.3859874979215791  0.5202903805847268  0.14925474657580579  1.0000
  H   H5        1.0  0.7818584634936308  0.35036757811772096  0.8227764559212557  1.0000
  H   H6        1.0  0.21814153664696115  0.6496324220174525  0.17722354362723386  1.0000
  H   H7        1.0  0.9484337616148796  0.24344906628092586  0.9464912881734628  1.0000
  H   H8        1.0  0.05156623894560978  0.7565509339114066  0.053508712032442986  1.0000
  H   H9        1.0  0.9487969454466788  0.27021552165228563  0.09530912189203948  1.0000
  H   H10       1.0  0.051203055113810826  0.7297844785400469  0.9046908783138664  1.0000
  H   H11       1.0  0.5120213951686724  0.28022916497982486  0.022911478706915442  1.0000
  H   H12       1.0  0.487978605391817  0.7197708352125076  0.9770885214989904  1.0000
  H   H13       1.0  0.25983539583452075  0.19712287407583826  0.016605094315565852  1.0000
  H   H14       1.0  0.740164603284325  0.8028771260565052  0.9833949052331505  1.0000
  H   H15       1.0  0.2016479705416755  0.20222427339995866  0.14901124710018834  1.0000
  H   H16       1.0  0.7983520298965715  0.797775725899824  0.8509887531054608  1.0000
  H   H17       1.0  0.3967441691916211  0.2864604096664021  0.2933225204923048  1.0000
  H   H18       1.0  0.6032558309489707  0.7135395904687714  0.7066774790561847  1.0000
  H   H19       1.0  0.6483220218693836  0.36382536638815083  0.30192305445174483  1.0000
  H   H20       1.0  0.3516779776693597  0.6361746338013518  0.6980769457543877  1.0000
  H   H21       1.0  0.9106760274045654  0.6032578952811415  0.10385582359665757  1.0000
  H   H22       1.0  0.08932397201193545  0.3967421040158111  0.8961441766092185  1.0000
  H   H23       1.0  0.95706709086203  0.8210188316069063  0.14560686144109528  1.0000
  H   H24       1.0  0.04293290969845935  0.17898116858542618  0.8543931387648105  1.0000
  H   H25       1.0  0.8733067518511408  0.8978341650199536  0.25926178191476773  1.0000
  H   H26       1.0  0.12669324870934873  0.10216583517237898  0.7407382182911383  1.0000
  H   H27       1.0  0.7331362137005442  0.7584928259949099  0.32605202943249095  1.0000
  H   H28       1.0  0.2668637858381993  0.2415071741945926  0.6739479707736418  1.0000
  H   H29       1.0  0.6813001872392747  0.5444373587492523  0.2825287995615968  1.0000
  H   H30       1.0  0.31869981187957114  0.45556264138309116  0.7174711999871195  1.0000
  H   H31       1.0  0.8244465456631391  0.10773120820562544  0.11583176075649385  1.0000
  H   H32       1.0  0.17555345477510786  0.8922687910941571  0.8841682394491555  1.0000
  H   H33       1.0  0.6269206485682135  0.9528981161689782  0.026388975432109434  1.0000
  H   H34       1.0  0.37307935084828747  0.047101883127974496  0.9736110247737666  1.0000
  H   H35       1.0  0.43848763042146066  0.8564071931301005  0.0836716870639462  1.0000
  H   H36       1.0  0.561512368697385  0.14359280700224297  0.9163283124847701  1.0000
  H   H37       1.0  0.4552294343348582  0.9186374129812441  0.2326033735170993  1.0000
  H   H38       1.0  0.5447705652038852  0.08136258720825838  0.7673966266890334  1.0000
  H   H39       1.0  0.6561905346973028  0.07485732950623232  0.32488723858426993  1.0000
  H   H40       1.0  0.34380946544328916  0.9251426706289412  0.6751127609642197  1.0000
  H   H41       1.0  0.013309796010606343  0.03764935799895966  0.19740557563688  1.0000
  H   H42       1.0  0.9866902035281369  0.9623506421905428  0.8025944245692526  1.0000
  H   H43       1.0  0.24020392562231643  0.9472856751835877  0.23604055363976453  1.0000
  H   H44       1.0  0.759796074938173  0.05271432500874481  0.7639594465661412  1.0000
  H   H45       1.0  0.44801658478548056  0.9988075591859221  0.3829228523058927  1.0000
  H   H46       1.0  0.551983415775009  0.0011924410064103055  0.6170771479000132  1.0000
  H   H47       1.0  0.42140272305598775  0.14793324646973316  0.4882697148382866  1.0000
  H   H48       1.0  0.5785972764827556  0.8520667537197694  0.511730285367846  1.0000
  H   H49       1.0  0.18876989971042946  0.23490700913148985  0.4514210508865158  1.0000
  H   H50       1.0  0.8112300994084163  0.7650929910008536  0.5485789486622005  1.0000
  H   H51       1.0  0.8889151364136394  0.41848936213263654  0.38782844504670005  1.0000
  H   H52       1.0  0.1110848637269525  0.5815106380025369  0.6121715545017895  1.0000
  H   H53       1.0  0.8588788430913814  0.45251717364551763  0.5307701626398328  1.0000
  H   H54       1.0  0.141121156447362  0.547482826543985  0.4692298375662998  1.0000
  H   H55       1.0  0.8549615256666582  0.28347671809742603  0.6245305191541599  1.0000
  H   H56       1.0  0.14503847489383132  0.7165232820949066  0.375469481051746  1.0000
  H   H57       1.0  0.8804788472467349  0.07944657065367325  0.5769573213467415  1.0000
  H   H58       1.0  0.11952115331375453  0.9205534295386593  0.4230426788591644  1.0000
  H   H59       1.0  0.9086643461267692  0.04491097832682954  0.4349292506873328  1.0000
  H   H60       1.0  0.09133565341197424  0.955089021862673  0.5650707495187999  1.0000
  C   C1        1.0  0.9200805679457087  0.33722218003592913  0.2429134710203375  1.0000
  C   C2        1.0  0.07991943105089437  0.6627778192038645  0.7570865285281222  1.0000
  C   C3        1.0  0.7784587104925518  0.38595447125526317  0.05720181197939161  1.0000
  C   C4        1.0  0.22154129006793763  0.6140455289370693  0.9427981882265142  1.0000
  C   C5        1.0  0.6847604316400756  0.4459346482918329  0.9882301795392692  1.0000
  C   C6        1.0  0.31523956789866775  0.5540653518976697  0.011769820666863544  1.0000
  C   C7        1.0  0.6859097094418212  0.4327933295721668  0.904132751755787  1.0000
  C   C8        1.0  0.3140902896770246  0.5672066705601767  0.09586724779292934  1.0000
  C   C9        1.0  0.7812147555270212  0.3603993397867726  0.8887003893402345  1.0000
  C   C10       1.0  0.21878524491122575  0.6396006595130102  0.11129961086541468  1.0000
  C   C11       1.0  0.8754993756249848  0.30220806761386404  0.9571859126197116  1.0000
  C   C12       1.0  0.12450062493550451  0.6977919325784685  0.042814087586194205  1.0000
  C   C13       1.0  0.8745258024125424  0.3150345009132124  0.041474501891273316  1.0000
  C   C14       1.0  0.12547419814794694  0.6849654992791202  0.9585254983146324  1.0000
  C   C15       1.0  0.5963425262414056  0.3316007872774302  0.162102616028145  1.0000
  C   C16       1.0  0.40365747329733764  0.6683992129120723  0.8378973841779876  1.0000
  C   C17       1.0  0.4865997379857866  0.2829424897174565  0.08197096297924127  1.0000
  C   C18       1.0  0.5134002611330591  0.717057510414887  0.9180290365694751  1.0000
  C   C19       1.0  0.3453665551477668  0.2369873319809249  0.07813281481246193  1.0000
  C   C20       1.0  0.6546334439710789  0.7630126681514185  0.9218671847362545  1.0000
  C   C21       1.0  0.31242754112595733  0.23951516480766613  0.15364404213326455  1.0000
  C   C22       1.0  0.6875724590146345  0.7604848353275072  0.846355957415225  1.0000
  C   C23       1.0  0.42155163924774913  0.28592166560147947  0.23393830963650508  1.0000
  C   C24       1.0  0.5784483608928426  0.714078334533694  0.7660616899119844  1.0000
  C   C25       1.0  0.5632937211418522  0.3311752227498477  0.23844426431234794  1.0000
  C   C26       1.0  0.4367062782746486  0.6688247765471049  0.7615557358935281  1.0000
  C   C27       1.0  0.7950891981041541  0.5584397131843828  0.1911491501627612  1.0000
  C   C28       1.0  0.20491080203643777  0.44156028695079075  0.8088508493857284  1.0000
  C   C29       1.0  0.8720207359725717  0.6374323199903176  0.1525598297440935  1.0000
  C   C30       1.0  0.12797926458791767  0.3625676802020149  0.8474401704618122  1.0000
  C   C31       1.0  0.8995380573650258  0.759457279711787  0.17687930962545623  1.0000
  C   C32       1.0  0.10046194205147503  0.24054271958516565  0.8231206905804197  1.0000
  C   C33       1.0  0.8514573971907006  0.802743872068293  0.24009466015750913  1.0000
  C   C34       1.0  0.14854260192814522  0.19725612806405038  0.7599053393912072  1.0000
  C   C35       1.0  0.773596668683024  0.7249493774504014  0.27790472174035924  1.0000
  C   C36       1.0  0.22640333043582184  0.275050622681942  0.7220952778083571  1.0000
  C   C37       1.0  0.7447501489456436  0.6031163352679568  0.25339492914010825  1.0000
  C   C38       1.0  0.25524985119494836  0.39688366486721655  0.7466050704083813  1.0000
  C   C39       1.0  0.7571304717808625  0.09999091066170578  0.22834897069857674  1.0000
  C   C40       1.0  0.24286952865738431  0.9000090886380768  0.7716510295070724  1.0000
  C   C41       1.0  0.7455970842835573  0.06659443801321015  0.14305181723906035  1.0000
  C   C42       1.0  0.2544029158570345  0.9334055621219632  0.8569481823094293  1.0000
  C   C43       1.0  0.6325712630020487  0.978354823277573  0.09182211678639446  1.0000
  C   C44       1.0  0.36742873755844085  0.021645176914759624  0.9081778834195114  1.0000
  C   C45       1.0  0.5281176357980174  0.9246691844224457  0.1238711682928764  1.0000
  C   C46       1.0  0.4718823647624721  0.07533081576988668  0.8761288319130295  1.0000
  C   C47       1.0  0.537057801895705  0.9598510074067595  0.2076409925783818  1.0000
  C   C48       1.0  0.4629421986647845  0.040148992785572976  0.792359007627524  1.0000
  C   C49       1.0  0.6510101715163578  0.04689692774542358  0.2600236760755365  1.0000
  C   C50       1.0  0.3489898290441316  0.953103072446909  0.7399763241303693  1.0000
  C   C51       1.0  0.08234758228573144  0.1405730729081791  0.32267278866153953  1.0000
  C   C52       1.0  0.9176524172530118  0.8594269272813234  0.6773272115445932  1.0000
  C   C53       1.0  0.09977988389932117  0.060655165655233136  0.2623324710498653  1.0000
  C   C54       1.0  0.9002201150972821  0.9393448335845607  0.7376675284985944  1.0000
  C   C55       1.0  0.2304897748133242  0.009471780168281515  0.2842519076935756  1.0000
  C   C56       1.0  0.7695102257471652  0.9905282200240509  0.7157480925123302  1.0000
  C   C57       1.0  0.34607675543678507  0.03933057388802374  0.3656744824585681  1.0000
  C   C58       1.0  0.6539232451237045  0.960669426304309  0.6343255177473378  1.0000
  C   C59       1.0  0.33101248211858525  0.12145397956474654  0.42518972902362384  1.0000
  C   C60       1.0  0.6689875170002605  0.8785460205675969  0.5748102705250926  1.0000
  C   C61       1.0  0.19951738446944023  0.17147564137744012  0.40427452952203424  1.0000
  C   C62       1.0  0.8004826150693032  0.8285243588120625  0.5957254706840984  1.0000
  C   C63       1.0  0.8970530698826449  0.22986798102642889  0.4015617737879002  1.0000
  C   C64       1.0  0.10294692965609854  0.7701320191630737  0.5984382264182323  1.0000
  C   C65       1.0  0.8851751370460929  0.34453060175910294  0.42939833183131154  1.0000
  C   C66       1.0  0.11482486237040794  0.6554693975378497  0.5706016683745645  1.0000
  C   C67       1.0  0.8698922792199135  0.36354639074987827  0.5095067909820069  1.0000
  C   C68       1.0  0.13010772134057602  0.6364536094424542  0.490493209223899  1.0000
  C   C69       1.0  0.8675891719780354  0.2681287442276812  0.562276887617039  1.0000
  C   C70       1.0  0.1324108281625563  0.7318712559074924  0.4377231119314505  1.0000
  C   C71       1.0  0.8818407415410668  0.15369837004970233  0.5354710476155842  1.0000
  C   C72       1.0  0.11815925757777888  0.8463016300826411  0.46452895193313204  1.0000
  C   C73       1.0  0.897148579305611  0.13423684675092268  0.4555341201086127  1.0000
  C   C74       1.0  0.10285142083498072  0.8657631533842507  0.5444658794398768  1.0000
  P   P1        1.0  0.7768845234503577  0.39858127492101214  0.16664693925008553  1.0000
  P   P2        1.0  0.2231154765679916  0.6014187243216115  0.8333530602981474  1.0000
  P   P3        1.0  0.9122011801608572  0.20841094007665403  0.29575558760361553  1.0000
  P   P4        1.0  0.08779881985749231  0.7915890591659697  0.7042444119446174  1.0000
  I   I1        1.0  0.13074855262670823  0.44604276167190376  0.28437235177131764  1.0000
  I   I2        1.0  0.8692514464921375  0.5539572384604398  0.7156276477773987  1.0000
  I   I3        1.0  0.0  0.0  0.0  1.0000
  I   I4        1.0  0.5000000000091747  0.4999999996213118  0.49999999977411647  1.0000
  I   I5        1.0  0.546147621724386  0.33978736541496274  0.6434633526416459  1.0000
  I   I6        1.0  0.4538523788361034  0.6602126347773698  0.35653664756425996  1.0000
