data_image0
_chemical_formula_structural       H24C20N4F4
_chemical_formula_sum              "H24 C20 N4 F4"
_cell_length_a       5.961393295197883
_cell_length_b       5.961393295197883
_cell_length_c       13.674322288141278
_cell_angle_alpha    90.0
_cell_angle_beta     90.0
_cell_angle_gamma    90.0

_space_group_name_H-M_alt    "P 1"
_space_group_IT_number       1

loop_
  _space_group_symop_operation_xyz
  'x, y, z'

loop_
  _atom_site_type_symbol
  _atom_site_label
  _atom_site_symmetry_multiplicity
  _atom_site_fract_x
  _atom_site_fract_y
  _atom_site_fract_z
  _atom_site_occupancy
  H   H1        1.0  0.8390005091643556  0.2466391105556464  0.0849100259255206  1.0000
  H   H2        1.0  0.2533608898471216  0.33900050876158766  0.3349100257766782  1.0000
  H   H3        1.0  0.16099949164118033  0.7533608902498896  0.5849100263591334  1.0000
  H   H4        1.0  0.7466391109584145  0.6609994920439484  0.834910026210291  1.0000
  H   H5        1.0  0.2466391105556464  0.8390005091643556  0.9150899742104073  1.0000
  H   H6        1.0  0.33900050876158766  0.2533608898471216  0.6650899743592498  1.0000
  H   H7        1.0  0.7533608902498896  0.16099949164118033  0.4150899737767946  1.0000
  H   H8        1.0  0.6609994920439484  0.7466391109584145  0.16508997392563698  1.0000
  H   H9        1.0  0.12112505487293661  0.5562864779734216  0.08402847364483068  1.0000
  H   H10       1.0  0.9437135215574223  0.6211250552757046  0.33402847349598824  1.0000
  H   H11       1.0  0.8788749442551391  0.4437135211546543  0.5840284733471458  1.0000
  H   H12       1.0  0.05628647757065353  0.3788749438523712  0.8340284731983034  1.0000
  H   H13       1.0  0.5562864779734216  0.12112505487293661  0.9159715264910974  1.0000
  H   H14       1.0  0.6211250552757046  0.9437135215574223  0.6659715266399396  1.0000
  H   H15       1.0  0.4437135211546543  0.8788749442551391  0.41597152678878213  1.0000
  H   H16       1.0  0.3788749438523712  0.05628647757065353  0.1659715262063269  1.0000
  H   H17       1.0  0.4926154616179404  0.4926154616179404  0.0  1.0000
  H   H18       1.0  0.007384538784827604  0.9926154620207084  0.2499999998511576  1.0000
  H   H19       1.0  0.5073845391875956  0.5073845391875956  0.4999999997023152  1.0000
  H   H20       1.0  0.9926154620207084  0.007384538784827604  0.7500000002847703  1.0000
  H   H21       1.0  0.8773660922880587  0.8773660922880587  0.0  1.0000
  H   H22       1.0  0.6226339089202454  0.3773660918852907  0.2499999998511576  1.0000
  H   H23       1.0  0.12263390851747734  0.12263390851747734  0.4999999997023152  1.0000
  H   H24       1.0  0.3773660918852907  0.6226339089202454  0.7500000002847703  1.0000
  C   C1        1.0  0.9977712332436469  0.22981042722069295  0.04625138757688068  1.0000
  C   C2        1.0  0.2701895731820751  0.49777123284087893  0.29625138815933594  1.0000
  C   C3        1.0  0.002228767561889064  0.7701895735848431  0.5462513880104934  1.0000
  C   C4        1.0  0.7298104276234609  0.5022287679646571  0.7962513878616511  1.0000
  C   C5        1.0  0.22981042722069295  0.9977712332436469  0.9537486118277496  1.0000
  C   C6        1.0  0.49777123284087893  0.2701895731820751  0.703748611976592  1.0000
  C   C7        1.0  0.7701895735848431  0.002228767561889064  0.4537486121254345  1.0000
  C   C8        1.0  0.5022287679646571  0.7298104276234609  0.20374861227427687  1.0000
  C   C9        1.0  0.15806490418255847  0.39912194552180114  0.04702564532632554  1.0000
  C   C10       1.0  0.10087805488096686  0.6580649045853265  0.29702564517748314  1.0000
  C   C11       1.0  0.8419350949455173  0.6008780536062747  0.5470256450286407  1.0000
  C   C12       1.0  0.8991219459245691  0.3419350962202095  0.7970256456110959  1.0000
  C   C13       1.0  0.39912194552180114  0.15806490418255847  0.9529743548096024  1.0000
  C   C14       1.0  0.6580649045853265  0.10087805488096686  0.7029743549584448  1.0000
  C   C15       1.0  0.6008780536062747  0.8419350949455173  0.4529743543759896  1.0000
  C   C16       1.0  0.3419350962202095  0.8991219459245691  0.20297435452483203  1.0000
  C   C17       1.0  0.36292704790049973  0.36292704790049973  0.0  1.0000
  C   C18       1.0  0.13707295250226828  0.8629270466258074  0.2499999998511576  1.0000
  C   C19       1.0  0.6370729529050363  0.6370729529050363  0.4999999997023152  1.0000
  C   C20       1.0  0.8629270466258074  0.13707295250226828  0.7500000002847703  1.0000
  N   N1        1.0  0.034031921725987326  0.034031921725987326  0.0  1.0000
  N   N2        1.0  0.4659680786767807  0.5340319221287553  0.2499999998511576  1.0000
  N   N3        1.0  0.9659680774020885  0.9659680774020885  0.4999999997023152  1.0000
  N   N4        1.0  0.5340319221287553  0.4659680786767807  0.7500000002847703  1.0000
  F   F1        1.0  0.7456044786678442  0.7456044786678442  0.0  1.0000
  F   F2        1.0  0.7543955208629995  0.24560447994253648  0.2499999998511576  1.0000
  F   F3        1.0  0.2543955204602315  0.2543955204602315  0.4999999997023152  1.0000
  F   F4        1.0  0.24560447994253648  0.7543955208629995  0.7500000002847703  1.0000
