data_image0
_chemical_formula_structural       H18C10N2F8
_chemical_formula_sum              "H18 C10 N2 F8"
_cell_length_a       7.4161837416645495
_cell_length_b       6.697289086817955
_cell_length_c       7.382656818528222
_cell_angle_alpha    90.0
_cell_angle_beta     100.76194760258043
_cell_angle_gamma    90.0

_space_group_name_H-M_alt    "P 1"
_space_group_IT_number       1

loop_
  _space_group_symop_operation_xyz
  'x, y, z'

loop_
  _atom_site_type_symbol
  _atom_site_label
  _atom_site_symmetry_multiplicity
  _atom_site_fract_x
  _atom_site_fract_y
  _atom_site_fract_z
  _atom_site_occupancy
  H   H1        1.0  0.5505764584804544  0.24999999974549572  0.6424453764031912  1.0000
  H   H2        1.0  0.449423541798223  0.7500000007296286  0.3575546233282241  1.0000
  H   H3        1.0  0.4071684445310087  0.24999999974549572  0.929711404645698  1.0000
  H   H4        1.0  0.592831555755081  0.7500000007296286  0.07028859644161375  1.0000
  H   H5        1.0  0.06652011565509848  0.24999999974549572  0.8894096559763932  1.0000
  H   H6        1.0  0.9334798846235791  0.7500000007296286  0.11059034375502222  1.0000
  H   H7        1.0  0.8762753404091985  0.24999999974549572  0.5686039104996876  1.0000
  H   H8        1.0  0.12372465986947893  0.7500000007296286  0.43139608923172773  1.0000
  H   H9        1.0  0.04198940446317546  0.24999999974549572  0.2984228487024041  1.0000
  H   H10       1.0  0.9580105958155021  0.7500000007296286  0.7015771510290112  1.0000
  H   H11       1.0  0.3619379714876487  0.24999999974549572  0.3578935155583768  1.0000
  H   H12       1.0  0.6380620287910288  0.7500000007296286  0.6421064841730384  1.0000
  H   H13       1.0  0.6724065763264687  0.24999999974549572  0.22763952229866902  1.0000
  H   H14       1.0  0.32759342395220875  0.7500000007296286  0.7723604774327463  1.0000
  H   H15       1.0  0.756029644416561  0.08987144233995951  0.9445230261653326  1.0000
  H   H16       1.0  0.24397035586211654  0.589871441830951  0.055476973566082784  1.0000
  H   H17       1.0  0.24397035586211654  0.9101285581351648  0.055476973566082784  1.0000
  H   H18       1.0  0.756029644416561  0.4101285571510319  0.9445230261653326  1.0000
  C   C1        1.0  0.40367432253278446  0.24999999974549572  0.638370067137756  1.0000
  C   C2        1.0  0.5963256777458931  0.7500000007296286  0.36162993259365933  1.0000
  C   C3        1.0  0.32254120629802946  0.24999999974549572  0.7927094784105404  1.0000
  C   C4        1.0  0.677458793980648  0.7500000007296286  0.20729052132087497  1.0000
  C   C5        1.0  0.13150886248054203  0.24999999974549572  0.7690044442921125  1.0000
  C   C6        1.0  0.8684911377981355  0.7500000007296286  0.23099555543930275  1.0000
  C   C7        1.0  0.025353560300373747  0.24999999974549572  0.5915758508152449  1.0000
  C   C8        1.0  0.9746464399783037  0.7500000007296286  0.40842414891617046  1.0000
  C   C9        1.0  0.1124846316726822  0.24999999974549572  0.44132574829280924  1.0000
  C   C10       1.0  0.8875153686134074  0.7500000007296286  0.5586742527945024  1.0000
  N   N1        1.0  0.29717661981954896  0.24999999974549572  0.4696667845930842  1.0000
  N   N2        1.0  0.7028233804591286  0.7500000007296286  0.5303332151383311  1.0000
  F   F1        1.0  0.6200838611706748  0.24999999974549572  0.3433337353719572  1.0000
  F   F2        1.0  0.37991613910800265  0.7500000007296286  0.6566662643594581  1.0000
  F   F3        1.0  0.7542804894845555  0.24999999974549572  0.07256714817785204  1.0000
  F   F4        1.0  0.245719510794122  0.7500000007296286  0.9274328515535633  1.0000
  F   F5        1.0  0.7570866936234933  0.990785527395044  0.8449564678309988  1.0000
  F   F6        1.0  0.2429133052826607  0.4907855279040525  0.15504353165027768  1.0000
  F   F7        1.0  0.2429133052826607  0.009214473080080356  0.15504353165027768  1.0000
  F   F8        1.0  0.7570866936234933  0.5092144725710718  0.8449564678309988  1.0000
