data_image0
_chemical_formula_structural       H64C92N12O20Cl4
_chemical_formula_sum              "H64 C92 N12 O20 Cl4"
_cell_length_a       40.03988440721625
_cell_length_b       3.662013148493652
_cell_length_c       13.06428364903637
_cell_angle_alpha    90.0
_cell_angle_beta     96.09198518679867
_cell_angle_gamma    90.0

_space_group_name_H-M_alt    "P 1"
_space_group_IT_number       1

loop_
  _space_group_symop_operation_xyz
  'x, y, z'

loop_
  _atom_site_type_symbol
  _atom_site_label
  _atom_site_symmetry_multiplicity
  _atom_site_fract_x
  _atom_site_fract_y
  _atom_site_fract_z
  _atom_site_occupancy
  H   H1        1.0  0.3383410788990034  0.8200383909695309  0.5046778047889022  1.0000
  H   H2        1.0  0.3383410789274452  0.17996160671107497  0.004677804932162018  1.0000
  H   H3        1.0  0.838341078922435  0.3200383921292279  0.5046778044762528  1.0000
  H   H4        1.0  0.8383410789508767  0.6799616082821163  0.004677804619512434  1.0000
  H   H5        1.0  0.2886576346379843  0.9582231460428856  0.7797113058464403  1.0000
  H   H6        1.0  0.288657634666426  0.04177685436845864  0.2797113059897  1.0000
  H   H7        1.0  0.7886576346614159  0.45822314447184426  0.7797113055337908  1.0000
  H   H8        1.0  0.7886576346898576  0.5417768532087616  0.27971130567705044  1.0000
  H   H9        1.0  0.39090574965851166  0.5748770019752564  0.8016802879970979  1.0000
  H   H10       1.0  0.39090574968695335  0.42512299843608786  0.30168028814035763  1.0000
  H   H11       1.0  0.8909057496819435  0.07487700313495346  0.8016802876844483  1.0000
  H   H12       1.0  0.8909057497103849  0.9251229972763907  0.301680287827708  1.0000
  H   H13       1.0  0.34080057474877984  0.7432214466841962  0.8853181589543373  1.0000
  H   H14       1.0  0.34080057477722153  0.2567785537271481  0.38531815909759703  1.0000
  H   H15       1.0  0.8408005747722116  0.2432214478438932  0.8853181586416877  1.0000
  H   H16       1.0  0.8408005748006533  0.7567785525674511  0.3853181587849475  1.0000
  H   H17       1.0  0.4449141596258748  0.4474593191108638  0.6172208066660515  1.0000
  H   H18       1.0  0.4449141596543165  0.5525406813004805  0.11722080680931117  1.0000
  H   H19       1.0  0.944914159675561  0.9474593179511668  0.6172208071231938  1.0000
  H   H20       1.0  0.9449141597040028  0.052540682460177554  0.11722080726645348  1.0000
  H   H21       1.0  0.5361641028427463  0.5432789969141337  0.6082659677201989  1.0000
  H   H22       1.0  0.5361641028711881  0.4567210034972105  0.1082659678634587  1.0000
  H   H23       1.0  0.03616410281931467  0.04327899534309242  0.6082659680328486  1.0000
  H   H24       1.0  0.03616410282150186  0.9567210050682518  0.10826596740631639  1.0000
  H   H25       1.0  0.5937734706485513  0.6163821342172096  0.5605027307096068  1.0000
  H   H26       1.0  0.5937734704009451  0.3836178661941348  0.060502730081839304  1.0000
  H   H27       1.0  0.09377347059886507  0.11638213264616813  0.5605027302524643  1.0000
  H   H28       1.0  0.09377347062730682  0.8836178677651761  0.06050273039572414  1.0000
  H   H29       1.0  0.50110365985116  0.9079743887232424  0.2260253682194927  1.0000
  H   H30       1.0  0.5011036598227183  0.09202561168810183  0.7260253680762331  1.0000
  H   H31       1.0  0.0011036600775217056  0.4079743898829395  0.22602536853337754  1.0000
  H   H32       1.0  0.0011036600490799647  0.5920256105284047  0.7260253683901178  1.0000
  H   H33       1.0  0.6418140618265451  0.5576821210595772  0.21113160128732106  1.0000
  H   H34       1.0  0.6418140620478968  0.44231787935176714  0.7111316011452966  1.0000
  H   H35       1.0  0.14181406202665228  0.05768211948853579  0.211131600831414  1.0000
  H   H36       1.0  0.14181406199821056  0.94231787819207  0.7111316006881542  1.0000
  H   H37       1.0  0.4353517190598567  0.09940257591640131  0.4624635653874656  1.0000
  H   H38       1.0  0.435351719031415  0.9005974217642044  0.9624635652442058  1.0000
  H   H39       1.0  0.9353517191095427  0.5994025774874426  0.46246356584460796  1.0000
  H   H40       1.0  0.9353517190811013  0.4005974229239016  0.9624635657013483  1.0000
  H   H41       1.0  0.4445626381899629  0.8646121932419623  0.28752297489179196  1.0000
  H   H42       1.0  0.44456263816152114  0.135387807169382  0.7875229747485322  1.0000
  H   H43       1.0  0.9445626382133945  0.3646121916709209  0.28752297457914233  1.0000
  H   H44       1.0  0.944562638184953  0.6353878087404233  0.7875229744358827  1.0000
  H   H45       1.0  0.7012465671948498  0.849641070043633  0.4947408769562351  1.0000
  H   H46       1.0  0.7012465671664081  0.15035893036771125  0.9947408768129753  1.0000
  H   H47       1.0  0.20124656717141812  0.3496410712033301  0.4947408772688846  1.0000
  H   H48       1.0  0.20124656714297637  0.6503589292080142  0.9947408771256249  1.0000
  H   H49       1.0  0.6874620630239874  0.7322205058447097  0.11404068806501116  1.0000
  H   H50       1.0  0.6874620629955456  0.2677794945666345  0.6140406879217515  1.0000
  H   H51       1.0  0.18746206300055565  0.23222050427366842  0.11404068837766074  1.0000
  H   H52       1.0  0.1874620629721139  0.7677794934069374  0.614040688234401  1.0000
  H   H53       1.0  0.7409784769673687  0.9807512847072526  0.20240701502022274  1.0000
  H   H54       1.0  0.740978476938927  0.019248715704091687  0.7024070148769631  1.0000
  H   H55       1.0  0.24097847691768254  0.48075128313621124  0.20240701456308038  1.0000
  H   H56       1.0  0.24097847688924082  0.5192487145443946  0.7024070144198207  1.0000
  H   H57       1.0  0.7479472940678249  0.03927889501411749  0.3940746408088737  1.0000
  H   H58       1.0  0.7479472940393831  0.9607211053972267  0.8940746406656139  1.0000
  H   H59       1.0  0.2479472940443932  0.5392788938544204  0.39407464112152335  1.0000
  H   H60       1.0  0.24794729401595145  0.46072110655692383  0.8940746409782635  1.0000
  H   H61       1.0  0.6147594103138851  0.31954383082467747  0.30340332307773593  1.0000
  H   H62       1.0  0.614759410311698  0.6804561695866668  0.803403323704268  1.0000
  H   H63       1.0  0.11475941029045351  0.8195438323957188  0.30340332339038545  1.0000
  H   H64       1.0  0.11475941026201177  0.18045616801562545  0.8034033232471258  1.0000
  C   C1        1.0  0.3677474479128955  0.6898693498790913  0.6475844197544767  1.0000
  C   C2        1.0  0.36774744794133724  0.3101306505322529  0.14758441989773652  1.0000
  C   C3        1.0  0.8677474479625817  0.1898693510387884  0.6475844202116191  1.0000
  C   C4        1.0  0.8677474479910234  0.8101306493725559  0.14758442035487881  1.0000
  C   C5        1.0  0.3975097559323369  0.5963765779755189  0.5930026623346797  1.0000
  C   C6        1.0  0.39750975596077864  0.4036234197050869  0.09300266247793941  1.0000
  C   C7        1.0  0.8975097559820232  0.09637657913521601  0.593002662791822  1.0000
  C   C8        1.0  0.8975097559842103  0.9036234212761283  0.09300266216528982  1.0000
  C   C9        1.0  0.33855315224318666  0.8057596219210066  0.5879849858110746  1.0000
  C   C10       1.0  0.33855315227162835  0.19424037849033765  0.08798498595433436  1.0000
  C   C11       1.0  0.838553152292873  0.3057596203499653  0.5879849862682169  1.0000
  C   C12       1.0  0.8385531523213144  0.694240380061379  0.08798498641147667  1.0000
  C   C13       1.0  0.31050455792711207  0.9006220038714634  0.6364067317988258  1.0000
  C   C14       1.0  0.31050455767950585  0.09937799653988076  0.13640673117105842  1.0000
  C   C15       1.0  0.8105045577007502  0.4006220023004221  0.636406731484941  1.0000
  C   C16       1.0  0.8105045577291919  0.5993779953801837  0.13640673162820074  1.0000
  C   C17       1.0  0.3108907762320686  0.882160620130171  0.7433739613454158  1.0000
  C   C18       1.0  0.31089077626051037  0.11783938028117323  0.24337396148867552  1.0000
  C   C19       1.0  0.8108907762555002  0.3821606212898681  0.7433739610327662  1.0000
  C   C20       1.0  0.8108907762839419  0.6178393791214761  0.24337396117602594  1.0000
  C   C21       1.0  0.36845699988208064  0.6680519760029586  0.7548710224478558  1.0000
  C   C22       1.0  0.3684569999105224  0.33194802440838567  0.25487102259111544  1.0000
  C   C23       1.0  0.8684569999055122  0.16805197443191724  0.7548710221352061  1.0000
  C   C24       1.0  0.8684569999339541  0.8319480232486887  0.25487102227846586  1.0000
  C   C25       1.0  0.34005581263433077  0.7634496345678117  0.8019061087478881  1.0000
  C   C26       1.0  0.34005581266277246  0.2365503658435326  0.30190610889114783  1.0000
  C   C27       1.0  0.8400558126840169  0.2634496329967703  0.8019061092050305  1.0000
  C   C28       1.0  0.8400558126862042  0.7365503646838355  0.30190610857849826  1.0000
  C   C29       1.0  0.5170050700290133  0.28837504868992436  0.46591972098528023  1.0000
  C   C30       1.0  0.5170050700005716  0.7116249517214199  0.9659197208420206  1.0000
  C   C31       1.0  0.017005069979327027  0.7883750502609657  0.46591972052813796  1.0000
  C   C32       1.0  0.01700506995088529  0.21162495015037858  0.9659197203848783  1.0000
  C   C33       1.0  0.5827862580703929  0.37047984946697193  0.4096861513846066  1.0000
  C   C34       1.0  0.582786258041951  0.6295201509443724  0.9096861512413468  1.0000
  C   C35       1.0  0.08278625827050003  0.8704798483072748  0.40968615092869953  1.0000
  C   C36       1.0  0.08278625824205829  0.12952015210406945  0.9096861507854398  1.0000
  C   C37       1.0  0.5573680646014018  0.2004692665568327  0.3397165928352507  1.0000
  C   C38       1.0  0.5573680645729601  0.7995307338545116  0.8397165926919911  1.0000
  C   C39       1.0  0.05736806455171554  0.7004692653971356  0.33971659237810836  1.0000
  C   C40       1.0  0.05736806454952834  0.2995307350142087  0.8397165930046406  1.0000
  C   C41       1.0  0.5234673841384039  0.16155902122944701  0.3676027519831012  1.0000
  C   C42       1.0  0.5234673841099621  0.8384409791818973  0.8676027518398416  1.0000
  C   C43       1.0  0.023467384338511012  0.6615590228004884  0.3676027515271942  1.0000
  C   C44       1.0  0.023467384310069273  0.3384409776108559  0.8676027513839345  1.0000
  C   C45       1.0  0.6417050389323992  0.6017249885917005  0.4275728555941727  1.0000
  C   C46       1.0  0.6417050391537508  0.39827501181964375  0.9275728554521483  1.0000
  C   C47       1.0  0.14170503915876087  0.1017249897513976  0.4275728559080576  1.0000
  C   C48       1.0  0.14170503913031912  0.8982750106599467  0.9275728557647978  1.0000
  C   C49       1.0  0.6686563957624992  0.6875610730768966  0.3613951189038453  1.0000
  C   C50       1.0  0.6686563957340576  0.3124389273344476  0.8613951187605855  1.0000
  C   C51       1.0  0.16865639571281302  0.18756107423659368  0.361395118446703  1.0000
  C   C52       1.0  0.1686563959604193  0.8124389261747506  0.8613951190744704  1.0000
  C   C53       1.0  0.5425751409336386  0.4484055117812602  0.5340566247194123  1.0000
  C   C54       1.0  0.5425751409620803  0.5515944886300841  0.03405662486267203  1.0000
  C   C55       1.0  0.04257514091020684  0.9484055133523016  0.5340566250320619  1.0000
  C   C56       1.0  0.04257514093864859  0.05159448705904272  0.03405662517532162  1.0000
  C   C57       1.0  0.5746077821545121  0.48832721715802435  0.5074840576710608  1.0000
  C   C58       1.0  0.5746077821829538  0.5116727832533199  0.007484057814320436  1.0000
  C   C59       1.0  0.07460778213108044  0.9883272159983273  0.5074840579837103  1.0000
  C   C60       1.0  0.07460778215952217  0.011672781682278578  0.007484058126970019  1.0000
  C   C61       1.0  0.4970139157680393  0.006598062055003537  0.3020866038995518  1.0000
  C   C62       1.0  0.4970139157395975  0.9934019383563407  0.8020866037562919  1.0000
  C   C63       1.0  0.9970139155416777  0.5065980608953065  0.3020866035856669  1.0000
  C   C64       1.0  0.9970139155132358  0.4934019395160378  0.8020866034424073  1.0000
  C   C65       1.0  0.664927360822628  0.6548456307390446  0.2536976172754271  1.0000
  C   C66       1.0  0.6649273607941862  0.3451543696722997  0.7536976171321673  1.0000
  C   C67       1.0  0.1649273607729418  0.15484563189874165  0.2536976168182848  1.0000
  C   C68       1.0  0.16492736074450004  0.8451543685126026  0.7536976166750252  1.0000
  C   C69       1.0  0.4596939438461186  0.1106365962030085  0.4331309884695604  1.0000
  C   C70       1.0  0.4596939440674703  0.8893634042083357  0.9331309883275359  1.0000
  C   C71       1.0  0.9596939438695502  0.6106365950433115  0.43313098815691087  1.0000
  C   C72       1.0  0.9596939438411084  0.3893634053680328  0.933130988013651  1.0000
  C   C73       1.0  0.46552434029076  0.9832055822849926  0.33613803288535904  1.0000
  C   C74       1.0  0.46552434026231826  0.016794418126351688  0.8361380327420992  1.0000
  C   C75       1.0  0.9655243403141917  0.48320558344468967  0.33613803257270936  1.0000
  C   C76       1.0  0.96552434028575  0.5167944169666546  0.8361380324294496  1.0000
  C   C77       1.0  0.698888068400055  0.8248235103258631  0.41122958320361835  1.0000
  C   C78       1.0  0.6988880683716133  0.1751764900854812  0.9112295830603586  1.0000
  C   C79       1.0  0.19888806837662334  0.32482350875482174  0.41122958351626787  1.0000
  C   C80       1.0  0.19888806834818162  0.6751764916565226  0.9112295833730083  1.0000
  C   C81       1.0  0.691035920266481  0.7572860766872823  0.19742572161655783  1.0000
  C   C82       1.0  0.6910359202380393  0.2427139237240619  0.6974257214732982  1.0000
  C   C83       1.0  0.19103592021679477  0.25728607784697943  0.1974257211594155  1.0000
  C   C84       1.0  0.19103592021460758  0.7427139225643649  0.6974257217859477  1.0000
  C   C85       1.0  0.7208980073316026  0.8953459878615407  0.2473645616374688  1.0000
  C   C86       1.0  0.7208980073031609  0.10465401254980349  0.747364561494209  1.0000
  C   C87       1.0  0.2208980073081709  0.39534598629049944  0.24736456195011844  1.0000
  C   C88       1.0  0.22089800727972916  0.6046540113901063  0.7473645618068587  1.0000
  C   C89       1.0  0.7248122279442303  0.928300042122553  0.35460843354106336  1.0000
  C   C90       1.0  0.7248122279157885  0.07169995555805284  0.8546084333978036  1.0000
  C   C91       1.0  0.22481222789454394  0.4283000432822501  0.354608433083921  1.0000
  C   C92       1.0  0.22481222786610222  0.5716999571290942  0.8546084329406614  1.0000
  N   N1        1.0  0.6136978208186117  0.4232282619295152  0.376996883610181  1.0000
  N   N2        1.0  0.6136978207901699  0.576771738481829  0.8769968834669212  1.0000
  N   N3        1.0  0.11369782079518002  0.9232282607698182  0.3769968839228305  1.0000
  N   N4        1.0  0.11369782076673829  0.07677173964152613  0.8769968837795709  1.0000
  N   N5        1.0  0.48478565604226315  0.2615723404472261  0.4962505194385643  1.0000
  N   N6        1.0  0.48478565601382145  0.7384276599641181  0.9962505192953045  1.0000
  N   N7        1.0  0.9847856558159016  0.7615723392875291  0.49625051912467943  1.0000
  N   N8        1.0  0.9847856557874597  0.23842765839307678  0.9962505189814197  1.0000
  N   N9        1.0  0.5618242715653001  0.06208329975372127  0.2440583350247448  1.0000
  N   N10       1.0  0.561824271786652  0.937916700657623  0.7440583348827203  1.0000
  N   N11       1.0  0.061824271791661924  0.5620832985940242  0.24405833533862964  1.0000
  N   N12       1.0  0.06182427176322018  0.43791670181732006  0.74405833519537  1.0000
  O   O1        1.0  0.42419125814513897  0.49791159017275183  0.6565775365100237  1.0000
  O   O2        1.0  0.42419125817358067  0.502088407507854  0.15657753665328347  1.0000
  O   O3        1.0  0.9241912581685706  0.9979115917437932  0.6565775361973741  1.0000
  O   O4        1.0  0.9241912581970123  0.0020884086675510356  0.1565775363406339  1.0000
  O   O5        1.0  0.3973355282155585  0.6121706064660478  0.4984415703563453  1.0000
  O   O6        1.0  0.39733552818711676  0.3878293939452965  0.9984415702130855  1.0000
  O   O7        1.0  0.8973355282652449  0.11217060762574486  0.4984415708134876  1.0000
  O   O8        1.0  0.897335528236803  0.8878293927855995  0.9984415706702278  1.0000
  O   O9        1.0  0.5909431538845458  0.07808053887453038  0.21371330858387602  1.0000
  O   O10       1.0  0.590943153856104  0.9219194615368138  0.7137133084406163  1.0000
  O   O11       1.0  0.09094315386111407  0.5780805377148334  0.2137133088965256  1.0000
  O   O12       1.0  0.09094315383267233  0.421919462696511  0.7137133087532659  1.0000
  O   O13       1.0  0.4797395171276498  0.38955258273357146  0.5870760603753699  1.0000
  O   O14       1.0  0.4797395171298369  0.6104474176777728  0.08707605974883763  1.0000
  O   O15       1.0  0.9797395171510815  0.8895525815738744  0.5870760600627202  1.0000
  O   O16       1.0  0.9797395169297297  0.11044741883746984  0.08707606020474469  1.0000
  O   O17       1.0  0.6435912271344134  0.6866692657928776  0.5193246335998952  1.0000
  O   O18       1.0  0.6435912271628551  0.31333073461846667  0.01932463374315501  1.0000
  O   O19       1.0  0.1435912270847272  0.18666926422183625  0.519324633142753  1.0000
  O   O20       1.0  0.14359122711316896  0.8133307334587696  0.01932463328601269  1.0000
  Cl  Cl1       1.0  0.27437548377587867  0.04224500124027017  0.5613387302132289  1.0000
  Cl  Cl2       1.0  0.27437548377806587  0.957754999171074  0.06133872958669668  1.0000
  Cl  Cl3       1.0  0.7743754837993104  0.5422450000805731  0.5613387299005793  1.0000
  Cl  Cl4       1.0  0.7743754838277521  0.4577550003307712  0.061338730043839  1.0000
