data_image0
_chemical_formula_structural       H14C8N2O2Cl2I2
_chemical_formula_sum              "H14 C8 N2 O2 Cl2 I2"
_cell_length_a       5.611817335781734
_cell_length_b       6.955337872189323
_cell_length_c       10.160092465413095
_cell_angle_alpha    94.80057377091956
_cell_angle_beta     105.5169685190291
_cell_angle_gamma    106.95257096183174

_space_group_name_H-M_alt    "P 1"
_space_group_IT_number       1

loop_
  _space_group_symop_operation_xyz
  'x, y, z'

loop_
  _atom_site_type_symbol
  _atom_site_label
  _atom_site_symmetry_multiplicity
  _atom_site_fract_x
  _atom_site_fract_y
  _atom_site_fract_z
  _atom_site_occupancy
  H   H1        1.0  0.6246440259335657  0.9636889736530132  0.24372531951341742  1.0000
  H   H2        1.0  0.37535597360562395  0.03631102655772025  0.7562746801446302  1.0000
  H   H3        1.0  0.8398766560579372  0.08605299555630279  0.15346665376827548  1.0000
  H   H4        1.0  0.16012334293773964  0.9139470031507554  0.846533345887364  1.0000
  H   H5        1.0  0.6673276650584004  0.28029085509535256  0.9655392424253063  1.0000
  H   H6        1.0  0.33267233393727613  0.7197091436117056  0.0344607572303328  1.0000
  H   H7        1.0  0.3420927295911628  0.28275753908764795  0.9390433086766093  1.0000
  H   H8        1.0  0.6579072699480268  0.7172424611230854  0.06095669098143817  1.0000
  H   H9        1.0  0.36299474764351525  0.29506579724207643  0.39259977828282744  1.0000
  H   H10       1.0  0.6370052524888657  0.7049342032330022  0.6074002224127789  1.0000
  H   H11       1.0  0.6488194633692628  0.23399243538665002  0.3888633161587591  1.0000
  H   H12       1.0  0.3511805361699269  0.7660075648240833  0.6111366834992884  1.0000
  H   H13       1.0  0.33772558299907407  0.03883062105474362  0.3364753548769824  1.0000
  H   H14       1.0  0.6622744183240241  0.9611693791576094  0.6635246447839067  1.0000
  C   C1        1.0  0.633769570835315  0.004777853486159731  0.14342812336141744  1.0000
  C   C2        1.0  0.366230429297066  0.9952221469889189  0.8565718773341889  1.0000
  C   C3        1.0  0.4694584094259816  0.1896706798550504  0.9642589750222962  1.0000
  C   C4        1.0  0.5305415918971168  0.8103293203573028  0.035741024638593105  1.0000
  C   C5        1.0  0.3970203034534706  0.24025778844948695  0.18992016220032576  1.0000
  C   C6        1.0  0.6029796966789105  0.7597422120255918  0.8100798384952806  1.0000
  C   C7        1.0  0.4392710317054871  0.19962783269388584  0.33536863587551774  1.0000
  C   C8        1.0  0.5607289678337026  0.8003721675168476  0.6646313637825298  1.0000
  N   N1        1.0  0.48321941710675653  0.14163660450052404  0.1030030628321117  1.0000
  N   N2        1.0  0.5167805824324331  0.8583633957102094  0.8969969368259358  1.0000
  O   O1        1.0  0.28075175392885476  0.36505215806059393  0.14374837996937914  1.0000
  O   O2        1.0  0.719248245610335  0.6349478421501394  0.8562516196886685  1.0000
  Cl  Cl1       1.0  0.914846923619058  0.7559667265453359  0.3969145285095908  1.0000
  Cl  Cl2       1.0  0.08515307592013181  0.24403327366539754  0.6030854711484568  1.0000
  I   I1        1.0  0.10842441237362509  0.5576408653460313  0.2714595948428121  1.0000
  I   I2        1.0  0.8915755866220516  0.4423591333610269  0.7285404048128272  1.0000
