data_image0
_chemical_formula_structural       H28C32N2O24S4Cl8
_chemical_formula_sum              "H28 C32 N2 O24 S4 Cl8"
_cell_length_a       7.451048215317331
_cell_length_b       11.196107428983094
_cell_length_c       14.055773499144038
_cell_angle_alpha    95.19048435249216
_cell_angle_beta     98.31331281037419
_cell_angle_gamma    100.92406765105652

_space_group_name_H-M_alt    "P 1"
_space_group_IT_number       1

loop_
  _space_group_symop_operation_xyz
  'x, y, z'

loop_
  _atom_site_type_symbol
  _atom_site_label
  _atom_site_symmetry_multiplicity
  _atom_site_fract_x
  _atom_site_fract_y
  _atom_site_fract_z
  _atom_site_occupancy
  H   H1        1.0  0.5139061599778105  0.07203526541857909  0.07322933966601937  1.0000
  H   H2        1.0  0.48609383953041485  0.927964735288893  0.9267706602194321  1.0000
  H   H3        1.0  0.3770572993113875  0.997301683272319  0.39980913198502815  1.0000
  H   H4        1.0  0.6229427015348257  0.002698317434678641  0.6001908678867511  1.0000
  H   H5        1.0  0.08670230688388161  0.72409918571057  0.3570131302372783  1.0000
  H   H6        1.0  0.9132976923624704  0.2759008140851362  0.6429868696331075  1.0000
  H   H7        1.0  0.008126762707285852  0.08241100810320866  0.061789841230340974  1.0000
  H   H8        1.0  0.9918732365390661  0.9175889916924976  0.9382101586400449  1.0000
  H   H9        1.0  0.9954723462592834  0.11136238713893927  0.4139387576544028  1.0000
  H   H10       1.0  0.004527652987068688  0.888637612656767  0.586061242215983  1.0000
  H   H11       1.0  0.702273133396495  0.8642339693955384  0.4406739648147421  1.0000
  H   H12       1.0  0.2977268671878447  0.1357660303996935  0.5593260350419715  1.0000
  H   H13       1.0  0.9811224241854324  0.6072712791652544  0.08385675810098406  1.0000
  H   H14       1.0  0.01887757506091954  0.3927287206304519  0.9161432417694017  1.0000
  H   H15       1.0  0.9309308094736419  0.4841397863553439  0.15431908067040204  1.0000
  H   H16       1.0  0.06906918977271025  0.5158602134403625  0.8456809191999839  1.0000
  H   H17       1.0  0.9038994263348764  0.6352105907353358  0.19812441907471595  1.0000
  H   H18       1.0  0.09610057424946324  0.3647894090598961  0.8018755807819978  1.0000
  H   H19       1.0  0.03918843505698383  0.535563322391353  0.37760842175148346  1.0000
  H   H20       1.0  0.9608115641893681  0.4644366774043534  0.6223915781189022  1.0000
  H   H21       1.0  0.9616182893195195  0.6244456901134664  0.4527939037412247  1.0000
  H   H22       1.0  0.03838170992683245  0.37555430968223985  0.547206096129161  1.0000
  H   H23       1.0  0.5812541684775465  0.5567241811086581  0.2556055381996837  1.0000
  H   H24       1.0  0.4187458310179381  0.44327581877929  0.7443944623947731  1.0000
  H   H25       1.0  0.5408818924632358  0.4651615619364289  0.3437011763296292  1.0000
  H   H26       1.0  0.459118108121104  0.534838437858803  0.6562988235270846  1.0000
  H   H27       1.0  0.7501486598684357  0.5641490921595512  0.34811290610332457  1.0000
  H   H28       1.0  0.24985134071590404  0.43585090763568074  0.6518870937533892  1.0000
  C   C1        1.0  0.5486916476485205  0.14691150610069664  0.2223590161937155  1.0000
  C   C2        1.0  0.4513083529358193  0.8530884936945353  0.7776409836629983  1.0000
  C   C3        1.0  0.48548557983279683  0.05425152614304805  0.1449432337632742  1.0000
  C   C4        1.0  0.5145144194135552  0.9457484736526582  0.8550567661071117  1.0000
  C   C5        1.0  0.38607423611570146  0.9405530740043195  0.15962277970740155  1.0000
  C   C6        1.0  0.6139257631306505  0.059446925791386586  0.8403772201629842  1.0000
  C   C7        1.0  0.34946820728413874  0.9177614487298045  0.25241166078623684  1.0000
  C   C8        1.0  0.6505317919622132  0.08223855106590186  0.7475883390841488  1.0000
  C   C9        1.0  0.40850224555387804  0.013474631438909023  0.32827643424740904  1.0000
  C   C10       1.0  0.5914977552923351  0.9865253692680888  0.6717235656243702  1.0000
  C   C11       1.0  0.5069379211441968  0.1278615882947525  0.31488724444216426  1.0000
  C   C12       1.0  0.4930620794401429  0.8721384115004794  0.6851127554145495  1.0000
  C   C13       1.0  0.2508139165311912  0.7963050168961723  0.2732899559304827  1.0000
  C   C14       1.0  0.7491860829642935  0.20369498299177577  0.7267100446639742  1.0000
  C   C15       1.0  0.9113242329448379  0.9893108883277875  0.1782560067440099  1.0000
  C   C16       1.0  0.08867576630151397  0.010689111467918701  0.8217439931263759  1.0000
  C   C17       1.0  0.007143991181729989  0.08779638284809824  0.13934498140680407  1.0000
  C   C18       1.0  0.9928560099136158  0.9122036179511415  0.8606550191890463  1.0000
  C   C19       1.0  0.10028836680214658  0.19438499995659103  0.19856518410655669  1.0000
  C   C20       1.0  0.8997116324442055  0.8056149998391151  0.801434815763829  1.0000
  C   C21       1.0  0.09869689874943591  0.20193719571016505  0.2988554592572095  1.0000
  C   C22       1.0  0.901303101007922  0.7980628050895489  0.7011445413523129  1.0000
  C   C23       1.0  0.9990437996450784  0.10412645006726595  0.3365693000310316  1.0000
  C   C24       1.0  0.0009561996012735689  0.8958735497284402  0.6634306998393542  1.0000
  C   C25       1.0  0.9027806766702485  0.9963725743769465  0.27815640025672195  1.0000
  C   C26       1.0  0.09721932257610358  0.0036274254187597817  0.7218435996136638  1.0000
  C   C27       1.0  0.7978355559465603  0.8954452127591543  0.32336976747084906  1.0000
  C   C28       1.0  0.2021644446377793  0.10455478703607748  0.6766302323858646  1.0000
  C   C29       1.0  0.6850369885181281  0.5383875039073563  0.08373973548514337  1.0000
  C   C30       1.0  0.3149630107282239  0.4616124958883499  0.9162602643852423  1.0000
  C   C31       1.0  0.8933506686499215  0.5697302760792459  0.13422684475384397  1.0000
  C   C32       1.0  0.1066493319344181  0.4302697237159859  0.8657731551028697  1.0000
  N   N1        1.0  0.4373553392452526  0.34542436465208204  0.3771471493801911  1.0000
  N   N2        1.0  0.5626446600010995  0.6545756351436243  0.6228528504901947  1.0000
  O   O1        1.0  0.7490164806626355  0.3076908779219159  0.4264344567394512  1.0000
  O   O2        1.0  0.2509835201835775  0.6923091227850817  0.5735655431323281  1.0000
  O   O3        1.0  0.4918223538094973  0.18943684285521187  0.49540904156705645  1.0000
  O   O4        1.0  0.5081776454368547  0.8105631569404944  0.5045909583033293  1.0000
  O   O5        1.0  0.26131825667848824  0.6984404660949558  0.22981424606168802  1.0000
  O   O6        1.0  0.7386817425678637  0.30155953370075045  0.7701857538086977  1.0000
  O   O7        1.0  0.15160239735282238  0.8079660237728616  0.34411854733482633  1.0000
  O   O8        1.0  0.8483976018935296  0.19203397602284467  0.6558814525355594  1.0000
  O   O9        1.0  0.7315146122211773  0.7922868345670973  0.28199269781762354  1.0000
  O   O10       1.0  0.26848538702517477  0.20771316522860908  0.7180073020527622  1.0000
  O   O11       1.0  0.7820395313782398  0.9315905780664826  0.41547351814024547  1.0000
  O   O12       1.0  0.21796046920610013  0.06840942172874943  0.5845264817164683  1.0000
  O   O13       1.0  0.1743409057215503  0.3060812871137072  0.47498869982790043  1.0000
  O   O14       1.0  0.8256590948627894  0.6939187126815247  0.5250113000288134  1.0000
  O   O15       1.0  0.17232402459463908  0.4412579781713998  0.34430177657211086  1.0000
  O   O16       1.0  0.8276759746517129  0.5587420216243064  0.6556982232982749  1.0000
  O   O17       1.0  0.6713921555285722  0.5093795867855653  0.9939287508617485  1.0000
  O   O18       1.0  0.32860784396691234  0.4906204131023828  0.006071249732708428  1.0000
  O   O19       1.0  0.5658958428826538  0.5456549529900255  0.13648709756118807  1.0000
  O   O20       1.0  0.434104157701686  0.45434504680520627  0.8635129022955257  1.0000
  O   O21       1.0  0.9630328112510176  0.599187710225638  0.38367057815532457  1.0000
  O   O22       1.0  0.03696718799533444  0.40081228957006826  0.6163294217150612  1.0000
  O   O23       1.0  0.6085649650786965  0.5491558949112129  0.32676668073164966  1.0000
  O   O24       1.0  0.3914350341676557  0.45084410488449345  0.6732333191387362  1.0000
  S   S1        1.0  0.5568986581575229  0.24655591487880046  0.41472942861179873  1.0000
  S   S2        1.0  0.44310134242681687  0.7534440849164314  0.5852705712449151  1.0000
  S   S3        1.0  0.21977831812761517  0.33205884358062837  0.3810531262480935  1.0000
  S   S4        1.0  0.7802216811187368  0.6679411562150779  0.6189468736222923  1.0000
  Cl  Cl1       1.0  0.6760557487974828  0.28308674308484866  0.19955679634744594  1.0000
  Cl  Cl2       1.0  0.32394425204873023  0.7169132576221491  0.8004432035243334  1.0000
  Cl  Cl3       1.0  0.30412647581085467  0.8323033511468793  0.05987174667185792  1.0000
  Cl  Cl4       1.0  0.69587352368463  0.16769664874106877  0.9401282539225989  1.0000
  Cl  Cl5       1.0  0.8023456747229823  0.8640058513300477  0.09593751021492132  1.0000
  Cl  Cl6       1.0  0.1976543258613573  0.13599414846518407  0.9040624896417924  1.0000
  Cl  Cl7       1.0  0.20784578224845607  0.31309238067283285  0.14442985293671814  1.0000
  Cl  Cl8       1.0  0.7921542183358837  0.6869076191223991  0.8555701469199957  1.0000
