data_image0
_chemical_formula_structural       H32C136O4F80
_chemical_formula_sum              "H32 C136 O4 F80"
_cell_length_a       8.412312190995026
_cell_length_b       16.471455347255084
_cell_length_c       22.98564239301762
_cell_angle_alpha    90.0
_cell_angle_beta     98.31707876603998
_cell_angle_gamma    90.0

_space_group_name_H-M_alt    "P 1"
_space_group_IT_number       1

loop_
  _space_group_symop_operation_xyz
  'x, y, z'

loop_
  _atom_site_type_symbol
  _atom_site_label
  _atom_site_symmetry_multiplicity
  _atom_site_fract_x
  _atom_site_fract_y
  _atom_site_fract_z
  _atom_site_occupancy
  H   H1        1.0  0.5468728540260478  0.1080429951380446  0.9904612229904359  1.0000
  H   H2        1.0  0.4531271464309837  0.6080429949178127  0.509538777199231  1.0000
  H   H3        1.0  0.453127146610919  0.8919570050286022  0.009538777150062242  1.0000
  H   H4        1.0  0.5468728542059832  0.3919570046417234  0.49046122294126715  1.0000
  H   H5        1.0  0.6609547612651954  0.027948374341840772  0.02921883717659856  1.0000
  H   H6        1.0  0.3390452395450626  0.5279483747287196  0.47078116247933155  1.0000
  H   H7        1.0  0.3390452393651272  0.9720516252176951  0.9707811625285003  1.0000
  H   H8        1.0  0.66095476108526  0.47205162543792717  0.5292188372257673  1.0000
  H   H9        1.0  0.8279104847301648  0.03856351406773862  0.9546583140445628  1.0000
  H   H10       1.0  0.1720895157202224  0.5385635144546175  0.5453416857097049  1.0000
  H   H11       1.0  0.172089515906802  0.9614364860989082  0.04534168609593534  1.0000
  H   H12       1.0  0.8279104837087496  0.46143648571202933  0.45465831393420114  1.0000
  H   H13       1.0  0.758072717280246  0.13708840976072562  0.9341155823203737  1.0000
  H   H14       1.0  0.24192728317014117  0.6370884095404936  0.5658844174338941  1.0000
  H   H15       1.0  0.24192728335672078  0.8629115904059212  0.06588441782012454  1.0000
  H   H16       1.0  0.7580727174601815  0.36291159062615325  0.4341155822712049  1.0000
  H   H17       1.0  0.9669154225849917  0.19788524761676132  0.9969393967912793  1.0000
  H   H18       1.0  0.03308457666404491  0.6978852480036402  0.5030606029017953  1.0000
  H   H19       1.0  0.03308457684398027  0.8021147519427746  0.003060602852626649  1.0000
  H   H20       1.0  0.9669154227649269  0.3021147521630066  0.4969393967421106  1.0000
  H   H21       1.0  0.05292680084034488  0.10139230655646425  0.014042178764373857  1.0000
  H   H22       1.0  0.9470731987752067  0.6013923069433431  0.48595782126576265  1.0000
  H   H23       1.0  0.9470731985952714  0.8986076930030718  0.9859578213149314  1.0000
  H   H24       1.0  0.05292680066040952  0.3986076932233037  0.5140421788135426  1.0000
  H   H25       1.0  0.919368251894179  0.08632566582751637  0.09909237762034138  1.0000
  H   H26       1.0  0.0806317477213725  0.5863256662143952  0.40090762240979505  1.0000
  H   H27       1.0  0.08063174874278771  0.9136743337320196  0.9009076225201568  1.0000
  H   H28       1.0  0.9193682517142439  0.4136743339522516  0.5990923776695102  1.0000
  H   H29       1.0  0.9255137628208204  0.19490568333629363  0.09848203131649522  1.0000
  H   H30       1.0  0.07448623679473128  0.6949056831160616  0.40151796871364126  1.0000
  H   H31       1.0  0.07448623661479592  0.8050943168303532  0.90151796876281  1.0000
  H   H32       1.0  0.9255137638422355  0.3050943170505852  0.5984820314268569  1.0000
  C   C1        1.0  0.8002820232115997  0.7694138661591902  0.21831918215787346  1.0000
  C   C2        1.0  0.19971797760530252  0.2694138663794221  0.28168081793345595  1.0000
  C   C3        1.0  0.19971797742536715  0.2305861340074567  0.7816808179826246  1.0000
  C   C4        1.0  0.8002820230316643  0.7305861337872246  0.7183191822070423  1.0000
  C   C5        1.0  0.8335514181120969  0.816651356933171  0.26923968685652855  1.0000
  C   C6        1.0  0.1664485814968104  0.31665135715340303  0.23076031273820868  1.0000
  C   C7        1.0  0.16644858131687504  0.18334864323347583  0.7307603127873774  1.0000
  C   C8        1.0  0.8335514191335122  0.6833486430132437  0.7692396869668903  1.0000
  C   C9        1.0  0.7498734620738631  0.8883638325522027  0.2757026936934663  1.0000
  C   C10       1.0  0.25012653873639484  0.38836383277243475  0.2242973059624638  1.0000
  C   C11       1.0  0.2501265385564595  0.1116361670073332  0.7242973060116326  1.0000
  C   C12       1.0  0.7498734618939277  0.611636167394212  0.7757026937426351  1.0000
  C   C13       1.0  0.6319149183388927  0.9167505603878775  0.23120908138831586  1.0000
  C   C14       1.0  0.3680850812766589  0.41675056000099864  0.26879091864182064  1.0000
  C   C15       1.0  0.36808508109672355  0.08324943977876931  0.7687909186909895  1.0000
  C   C16       1.0  0.6319149181589574  0.5832494401656482  0.7312090814374846  1.0000
  C   C17       1.0  0.5897449404195422  0.865988674909474  0.18261817038015268  1.0000
  C   C18       1.0  0.41025506039736004  0.36598867452259515  0.31738182971117673  1.0000
  C   C19       1.0  0.41025506021742464  0.13401132525717283  0.8173818297603456  1.0000
  C   C20       1.0  0.5897449402396069  0.6340113256440517  0.6826181704293215  1.0000
  C   C21       1.0  0.6701496345985845  0.7935319717925337  0.17679853875930945  1.0000
  C   C22       1.0  0.3298503650169672  0.2935319720127657  0.32320146127082705  1.0000
  C   C23       1.0  0.32985036483703184  0.2064680277670022  0.8232014613199958  1.0000
  C   C24       1.0  0.670149634418649  0.7064680281538811  0.6767985388084782  1.0000
  C   C25       1.0  0.5787998782136055  0.0020765347857194605  0.22665958041768822  1.0000
  C   C26       1.0  0.42120012140194624  0.5020765351725983  0.27334041961244826  1.0000
  C   C27       1.0  0.42120012122201084  0.9979234647738165  0.7733404196616169  1.0000
  C   C28       1.0  0.5787998780336701  0.4979234649940485  0.7266595804668569  1.0000
  C   C29       1.0  0.6967643969743241  0.06114440580794436  0.22307917132715357  1.0000
  C   C30       1.0  0.3032356026412274  0.5611444055877123  0.2769208287029829  1.0000
  C   C31       1.0  0.30323560246129205  0.9388555943587025  0.7769208287521516  1.0000
  C   C32       1.0  0.6967643979957393  0.4388555939718236  0.7230791714375152  1.0000
  C   C33       1.0  0.6571774541654303  0.13895933733514515  0.20319101559676978  1.0000
  C   C34       1.0  0.34282254665147194  0.6389593377220241  0.2968089844945596  1.0000
  C   C35       1.0  0.3428225464715366  0.8610406628315017  0.7968089845437284  1.0000
  C   C36       1.0  0.6571774539854949  0.3610406624446228  0.7031910156459384  1.0000
  C   C37       1.0  0.4968571154532464  0.16222100862783098  0.18566842717657334  1.0000
  C   C38       1.0  0.503142884155661  0.6622210084075989  0.31433157241816384  1.0000
  C   C39       1.0  0.5031428839757256  0.8377789915388159  0.8143315724673326  1.0000
  C   C40       1.0  0.4968571152733111  0.33777899115193694  0.6856684272257422  1.0000
  C   C41       1.0  0.3787680867314716  0.10496734827309151  0.19308861905346783  1.0000
  C   C42       1.0  0.6212319140854307  0.6049673486599704  0.3069113810378616  1.0000
  C   C43       1.0  0.6212319139054951  0.8950326512864444  0.8069113810870303  1.0000
  C   C44       1.0  0.37876808655153626  0.39503265150667644  0.6930886191026365  1.0000
  C   C45       1.0  0.41846973977498153  0.026499575829693707  0.21289611895616042  1.0000
  C   C46       1.0  0.58153025984057  0.5264995756094616  0.28710388107397605  1.0000
  C   C47       1.0  0.5815302596606348  0.973500424336953  0.7871038811231448  1.0000
  C   C48       1.0  0.41846973959504613  0.47350042395007425  0.7128961190053291  1.0000
  C   C49       1.0  0.4693007493535993  0.23520511990736861  0.14844013486178287  1.0000
  C   C50       1.0  0.5306992502619524  0.7352051196871365  0.3515598651683535  1.0000
  C   C51       1.0  0.530699250082017  0.7647948802592781  0.8515598652175222  1.0000
  C   C52       1.0  0.46930074916701964  0.26479487987239936  0.6484401344755524  1.0000
  C   C53       1.0  0.5483380811169009  0.308423339826289  0.16396664281843695  1.0000
  C   C54       1.0  0.4516619184986507  0.808423339606057  0.3360333572116995  1.0000
  C   C55       1.0  0.4516619183187154  0.6915766603403578  0.8360333572608684  1.0000
  C   C56       1.0  0.5483380821383161  0.19157665995347894  0.6639666429287986  1.0000
  C   C57       1.0  0.5768237012141394  0.3653729742225187  0.12203535547131181  1.0000
  C   C58       1.0  0.4231762984014122  0.8653729746093975  0.37796464455882467  1.0000
  C   C59       1.0  0.42317629822147684  0.6346270253370172  0.8779646446079934  1.0000
  C   C60       1.0  0.5768237010275598  0.13462702555724923  0.6220353550850812  1.0000
  C   C61       1.0  0.5328549100373242  0.3503456597089139  0.0617918843137799  1.0000
  C   C62       1.0  0.46714508957822737  0.8503456594886819  0.4382081157163566  1.0000
  C   C63       1.0  0.46714508939829197  0.649654340457733  0.9382081157655253  1.0000
  C   C64       1.0  0.5328549110587395  0.14965434007085404  0.5617918844241416  1.0000
  C   C65       1.0  0.43667653249321225  0.28163924329692436  0.046961275038424836  1.0000
  C   C66       1.0  0.56332346832369  0.7816392430766923  0.4530387250529046  1.0000
  C   C67       1.0  0.5633234681437546  0.7183607568697224  0.9530387251020733  1.0000
  C   C68       1.0  0.4366765323132769  0.21836075708995453  0.5469612750875936  1.0000
  C   C69       1.0  0.40456968344079086  0.2259472239421883  0.08920933400525616  1.0000
  C   C70       1.0  0.5954303161747607  0.7259472237219563  0.41079066602488035  1.0000
  C   C71       1.0  0.5954303159948253  0.7740527762244584  0.9107906660740492  1.0000
  C   C72       1.0  0.4045696832608555  0.27405277583757964  0.5892093340544249  1.0000
  C   C73       1.0  0.6205671051397018  0.38615674121716076  0.01677049017924775  1.0000
  C   C74       1.0  0.3794328944758498  0.8861567416040396  0.4832295098508887  1.0000
  C   C75       1.0  0.3794328942959144  0.6138432589494861  0.9832295099000575  1.0000
  C   C76       1.0  0.6205671049597664  0.11384325856260723  0.5167704902284165  1.0000
  C   C77       1.0  0.789113837446641  0.3799561075848072  0.02535712523482225  1.0000
  C   C78       1.0  0.21088616337026117  0.8799561073645751  0.4746428748565071  1.0000
  C   C79       1.0  0.2108861631903258  0.6200438925818396  0.9746428749056759  1.0000
  C   C80       1.0  0.7891138372667057  0.1200438928020717  0.525357125283991  1.0000
  C   C81       1.0  0.8767904999900891  0.38690440799829023  0.978749174769968  1.0000
  C   C82       1.0  0.12320950046694254  0.886904408385169  0.5212508254196989  1.0000
  C   C83       1.0  0.1232095006468779  0.6130955915612457  0.02125082537053011  1.0000
  C   C84       1.0  0.8767904989686737  0.11309559178147775  0.47874917465960637  1.0000
  C   C85       1.0  0.8004491242629752  0.3983038536478387  0.9210951831925919  1.0000
  C   C86       1.0  0.19955087499270574  0.8983038540347176  0.578904816935882  1.0000
  C   C87       1.0  0.1995508751726411  0.6016961459116972  0.07890481688671333  1.0000
  C   C88       1.0  0.8004491244429105  0.10169614613192922  0.42109518314342315  1.0000
  C   C89       1.0  0.6352540426889584  0.4130387064512642  0.9134364289752045  1.0000
  C   C90       1.0  0.36474595656007824  0.9130387062310322  0.5865635707178701  1.0000
  C   C91       1.0  0.3647459567400136  0.5869612937153825  0.08656357066870138  1.0000
  C   C92       1.0  0.635254042875538  0.08696129332850368  0.4134364293614351  1.0000
  C   C93       1.0  0.5470305948989675  0.40767194327603995  0.9602225624552001  1.0000
  C   C94       1.0  0.4529694055514197  0.9076719436629188  0.5397774372990676  1.0000
  C   C95       1.0  0.452969405731355  0.5923280562834959  0.03977743724989882  1.0000
  C   C96       1.0  0.5470305938841966  0.09232805650372798  0.4602225627802376  1.0000
  C   C97       1.0  0.8848249769258881  0.3716044387674598  0.8722780299096613  1.0000
  C   C98       1.0  0.1151750235311433  0.8716044391543386  0.6277219702800056  1.0000
  C   C99       1.0  0.11517502371107864  0.6283955607920761  0.12772197023083687  1.0000
  C   C100      1.0  0.8848249771058235  0.1283955610123082  0.3722780298604925  1.0000
  C   C101      1.0  0.027869660593684918  0.4055450140362483  0.8596599583503842  1.0000
  C   C102      1.0  0.9721303398633466  0.9055450138160163  0.6403400418392828  1.0000
  C   C103      1.0  0.9721303400432819  0.5944549861303985  0.14034004179011406  1.0000
  C   C104      1.0  0.02786966077362028  0.09445498635063057  0.3596599583012154  1.0000
  C   C105      1.0  0.1234367159427752  0.36487198327630127  0.8242319213002621  1.0000
  C   C106      1.0  0.8765632845142562  0.8648719830560693  0.6757680788894047  1.0000
  C   C107      1.0  0.876563283492841  0.6351280168903456  0.17576807877904305  1.0000
  C   C108      1.0  0.12343671612271057  0.13512801711057762  0.3242319212510934  1.0000
  C   C109      1.0  0.08327484007767297  0.2875032193672657  0.801904130154433  1.0000
  C   C110      1.0  0.9167251591780079  0.7875032191470336  0.6980958699740412  1.0000
  C   C111      1.0  0.9167251593579433  0.7124967807993811  0.1980958699248723  1.0000
  C   C112      1.0  0.08327484025760834  0.21249678101961317  0.3019041301052641  1.0000
  C   C113      1.0  0.9360192023764875  0.2551509318027789  0.8124115775521857  1.0000
  C   C114      1.0  0.06398079687919345  0.7551509315825469  0.6875884225762882  1.0000
  C   C115      1.0  0.0639807970591288  0.7448490683638679  0.1875884225271194  1.0000
  C   C116      1.0  0.9360192025564228  0.24484906858409997  0.31241157750301707  1.0000
  C   C117      1.0  0.8376162892524592  0.29715767834781354  0.8455329371412325  1.0000
  C   C118      1.0  0.16238371119792802  0.7971576781275815  0.6544670626130351  1.0000
  C   C119      1.0  0.16238371018315703  0.7028423218188333  0.15446706293807266  1.0000
  C   C120      1.0  0.8376162894323946  0.2028423214319544  0.3455329370920638  1.0000
  C   C121      1.0  0.6669092849281836  0.09051848294925958  0.011987682391742667  1.0000
  C   C122      1.0  0.3330907146873681  0.5905184833361384  0.48801231763839387  1.0000
  C   C123      1.0  0.3330907145074327  0.9094815166102763  0.9880123176875627  1.0000
  C   C124      1.0  0.6669092847416038  0.4094815168305084  0.5119876820055121  1.0000
  C   C125      1.0  0.798183075331823  0.09798619344640751  0.9719678162648301  1.0000
  C   C126      1.0  0.20181692511856422  0.5979861938332863  0.5280321834894376  1.0000
  C   C127      1.0  0.2018169252984996  0.9020138067202393  0.02803218344026879  1.0000
  C   C128      1.0  0.7981830755117584  0.4020138063333604  0.4719678162156613  1.0000
  C   C129      1.0  0.9417875486007793  0.13669835133148847  0.012330461129172144  1.0000
  C   C130      1.0  0.058212452216122944  0.6366983511112564  0.48766953896215726  1.0000
  C   C131      1.0  0.05821245203618759  0.8633016488351584  0.9876695390113259  1.0000
  C   C132      1.0  0.9417875484208439  0.36330164905539036  0.5123304611783409  1.0000
  C   C133      1.0  0.883789666213782  0.14122045326053342  0.07254148786345997  1.0000
  C   C134      1.0  0.11621033340176962  0.6412204530403014  0.42745851216667646  1.0000
  C   C135      1.0  0.11621033321519  0.8587795469061134  0.9274585117804458  1.0000
  C   C136      1.0  0.8837896660338467  0.3587795471263454  0.5725414879126287  1.0000
  O   O1        1.0  0.7115386489181965  0.1458793797720143  0.05994730491689817  1.0000
  O   O2        1.0  0.2884613506973551  0.6458793795517823  0.4400526951132383  1.0000
  O   O3        1.0  0.2884613505107755  0.8541206203946325  0.9400526947270077  1.0000
  O   O4        1.0  0.7115386499396117  0.35412062000775363  0.5599473050272599  1.0000
  F   F1        1.0  0.9549484444130435  0.7959859868839649  0.31152822562305166  1.0000
  F   F2        1.0  0.04505155640385871  0.295985987104197  0.1884717744682777  1.0000
  F   F3        1.0  0.04505155622392336  0.20401401328268187  0.6884717745174465  1.0000
  F   F4        1.0  0.954948444226464  0.7040140130624498  0.8115282252368211  1.0000
  F   F5        1.0  0.7904008513999562  0.9331861979373618  0.32483767452010726  1.0000
  F   F6        1.0  0.2095991482155955  0.43318619815759385  0.17516232551002925  1.0000
  F   F7        1.0  0.2095991480356601  0.0668138016221741  0.675162325559198  1.0000
  F   F8        1.0  0.7904008512200207  0.566813802009053  0.824837674569276  1.0000
  F   F9        1.0  0.4812777507260531  0.8914516459194942  0.13718921790274557  1.0000
  F   F10       1.0  0.5187222488894985  0.39145164613972633  0.3628107821273909  1.0000
  F   F11       1.0  0.5187222487095631  0.10854835364004166  0.8628107821765596  1.0000
  F   F12       1.0  0.48127775174746834  0.6085483540269205  0.6371892180131072  1.0000
  F   F13       1.0  0.6349606995400011  0.7515142650745092  0.1262224682099035  1.0000
  F   F14       1.0  0.3650393012769011  0.2515142652947413  0.37377753188142593  1.0000
  F   F15       1.0  0.3650393010903215  0.24848573448502667  0.8737775314951953  1.0000
  F   F16       1.0  0.6349606993600657  0.7484857348719055  0.6262224682590722  1.0000
  F   F17       1.0  0.8539524062298396  0.04029798982581188  0.23244369633505294  1.0000
  F   F18       1.0  0.14604759338571202  0.5402979896055798  0.2675563036950835  1.0000
  F   F19       1.0  0.14604759320577662  0.9597020103408349  0.7675563037442521  1.0000
  F   F20       1.0  0.8539524060499043  0.4597020099539561  0.7324436963842218  1.0000
  F   F21       1.0  0.7782781428978646  0.18926661149705395  0.19485803740226185  1.0000
  F   F22       1.0  0.22172185671768702  0.6892666118839328  0.30514196262787463  1.0000
  F   F23       1.0  0.22172185653775164  0.8107333880624819  0.8051419626770433  1.0000
  F   F24       1.0  0.7782781427179293  0.310733388282714  0.6948580374514306  1.0000
  F   F25       1.0  0.2219155709014385  0.12425075604148468  0.17841098288113627  1.0000
  F   F26       1.0  0.778084428714113  0.6242507558212527  0.32158901714900023  1.0000
  F   F27       1.0  0.7780844297355284  0.8757492441251621  0.8215890172593618  1.0000
  F   F28       1.0  0.2219155707148589  0.3757492437382833  0.6784109824949058  1.0000
  F   F29       1.0  0.2991986195251872  0.9729052134224766  0.21603463220499805  1.0000
  F   F30       1.0  0.7008013800903643  0.47290521364270854  0.28396536782513837  1.0000
  F   F31       1.0  0.700801379910429  0.0270947861370594  0.7839653678743073  1.0000
  F   F32       1.0  0.29919862054660246  0.5270947865239383  0.7160346323153597  1.0000
  F   F33       1.0  0.6112116184329868  0.3216570538730763  0.22054317236910811  1.0000
  F   F34       1.0  0.38878838238391533  0.8216570542599552  0.27945682772222136  1.0000
  F   F35       1.0  0.38878838220398004  0.6783429462935705  0.7794568277713901  1.0000
  F   F36       1.0  0.6112116182530515  0.1783429459066916  0.7205431724182769  1.0000
  F   F37       1.0  0.6599864370644174  0.4327437114527858  0.14015675069894032  1.0000
  F   F38       1.0  0.3400135625511342  0.9327437112325537  0.35984324933119616  1.0000
  F   F39       1.0  0.34001356237119884  0.5672562887138609  0.8598432493803648  1.0000
  F   F40       1.0  0.6599864368778378  0.06725628832698215  0.6401567503127098  1.0000
  F   F41       1.0  0.39357505324777536  0.26091014967394344  0.9901086997777064  1.0000
  F   F42       1.0  0.6064249472092561  0.7609101494537114  0.5098913004119605  1.0000
  F   F43       1.0  0.6064249473891915  0.7390898504927034  0.009891300362791691  1.0000
  F   F44       1.0  0.39357505222636013  0.23908985071293543  0.4901086996673447  1.0000
  F   F45       1.0  0.3319101980618208  0.15559209347139366  0.07045610291347432  1.0000
  F   F46       1.0  0.6680898027550813  0.6555920932511615  0.429543897177855  1.0000
  F   F47       1.0  0.668089802575146  0.8444079066952531  0.9295438972270239  1.0000
  F   F48       1.0  0.33191019788188547  0.3444079063083743  0.570456102962643  1.0000
  F   F49       1.0  0.869000679262046  0.3567888274656529  0.07782783932168409  1.0000
  F   F50       1.0  0.13099932155485616  0.8567888278525317  0.42217216076964525  1.0000
  F   F51       1.0  0.13099932136827652  0.6432111720938831  0.9221721603834148  1.0000
  F   F52       1.0  0.8690006790821106  0.1432111723141151  0.5778278393708529  1.0000
  F   F53       1.0  0.03634492387246355  0.37141983577179877  0.9889153881391161  1.0000
  F   F54       1.0  0.9636550765779236  0.8714198355515667  0.5110846116151516  1.0000
  F   F55       1.0  0.9636550767645033  0.628580164394848  0.011084612001382107  1.0000
  F   F56       1.0  0.036344924052398905  0.1285801646150801  0.48891538808994733  1.0000
  F   F57       1.0  0.38635594257558814  0.4184552411847824  0.9498538878960426  1.0000
  F   F58       1.0  0.6136440578814434  0.9184552415716613  0.5501461122936244  1.0000
  F   F59       1.0  0.6136440580613787  0.5815447583747535  0.05014611224445562  1.0000
  F   F60       1.0  0.3863559427555235  0.08154475859498557  0.4498538878468738  1.0000
  F   F61       1.0  0.5587221124560389  0.42673135505123055  0.8586800657056459  1.0000
  F   F62       1.0  0.44127788679299784  0.9267313548309986  0.6413199339874289  1.0000
  F   F63       1.0  0.4412778869795774  0.5732686451154162  0.14131993437365944  1.0000
  F   F64       1.0  0.558722112635974  0.07326864533564827  0.358680065656477  1.0000
  F   F65       1.0  0.07788748847944131  0.4770257159643999  0.8840735749236838  1.0000
  F   F66       1.0  0.9221125119775903  0.9770257157441677  0.6159264252659831  1.0000
  F   F67       1.0  0.9221125121575255  0.5229742842022469  0.11592642521681434  1.0000
  F   F68       1.0  0.0778874874580261  0.022974284422478942  0.38407357481332216  1.0000
  F   F69       1.0  0.2619240366743795  0.3992115979657986  0.8141972621326995  1.0000
  F   F70       1.0  0.7380759637760077  0.8992115977455665  0.6858027376215681  1.0000
  F   F71       1.0  0.7380759639559431  0.6007884022008482  0.18580273757239932  1.0000
  F   F72       1.0  0.2619240368609591  0.10078840242108027  0.31419726251893004  1.0000
  F   F73       1.0  0.8956533486586629  0.17865054471281921  0.7953505065098984  1.0000
  F   F74       1.0  0.10434665179836854  0.6786505444925872  0.7046494936797685  1.0000
  F   F75       1.0  0.1043466519783039  0.8213494554538275  0.2046494936305997  1.0000
  F   F76       1.0  0.8956533488385984  0.32134945506694873  0.29535050646072963  1.0000
  F   F77       1.0  0.7018052704373903  0.2605207396391423  0.8572086186108595  1.0000
  F   F78       1.0  0.298194730012997  0.7605207394189102  0.6427913811434082  1.0000
  F   F79       1.0  0.2981947301995766  0.7394792605275045  0.1427913815296387  1.0000
  F   F80       1.0  0.7018052706173254  0.23947926074773654  0.3572086185616907  1.0000
