data_image0
_chemical_formula_structural       H28C42N6O12Cl18
_chemical_formula_sum              "H28 C42 N6 O12 Cl18"
_cell_length_a       14.840424734301033
_cell_length_b       10.681121926420293
_cell_length_c       9.27431827077078
_cell_angle_alpha    92.63066390992638
_cell_angle_beta     90.44568986298127
_cell_angle_gamma    105.53284176064858

_space_group_name_H-M_alt    "P 1"
_space_group_IT_number       1

loop_
  _space_group_symop_operation_xyz
  'x, y, z'

loop_
  _atom_site_type_symbol
  _atom_site_label
  _atom_site_symmetry_multiplicity
  _atom_site_fract_x
  _atom_site_fract_y
  _atom_site_fract_z
  _atom_site_occupancy
  H   H1        1.0  0.8981223228991654  0.4391375885095595  0.6419520527959216  1.0000
  H   H2        1.0  0.10187767753859277  0.560862411133784  0.35804794720003724  1.0000
  H   H3        1.0  0.029801284253803288  0.6313568414054221  0.7145715297613354  1.0000
  H   H4        1.0  0.9701987155111377  0.3686431582428036  0.28542847024389434  1.0000
  H   H5        1.0  0.19037433590388037  0.6014696214262536  0.7473896535979127  1.0000
  H   H6        1.0  0.8096256638610605  0.39853037822197207  0.2526103464073172  1.0000
  H   H7        1.0  0.00033449092324224747  0.072872803427251  0.654329807151234  1.0000
  H   H8        1.0  0.9996655088416986  0.9271271962209746  0.34567019285399586  1.0000
  H   H9        1.0  0.8026976728246422  0.275011440220092  0.5418406652511225  1.0000
  H   H10       1.0  0.19730232694029878  0.7249885594281339  0.45815933475410736  1.0000
  H   H11       1.0  0.6843085295007795  0.0628129916282895  0.49673155359252635  1.0000
  H   H12       1.0  0.3156914702641616  0.9371870080199364  0.5032684464127036  1.0000
  H   H13       1.0  0.7277129990442559  0.8558298146487977  0.5348116482282618  1.0000
  H   H14       1.0  0.272287000720685  0.14417018499942802  0.4651883517769681  1.0000
  H   H15       1.0  0.8974007829918508  0.8720746632334845  0.6080497209420215  1.0000
  H   H16       1.0  0.1025992169633575  0.12792533738617132  0.3919502790572669  1.0000
  H   H17       1.0  0.17303811211791983  0.17528825522294939  0.7637552735317832  1.0000
  H   H18       1.0  0.8269618883198382  0.8247117444203941  0.23624472646417574  1.0000
  H   H19       1.0  0.3202486001304487  0.5578268500134492  0.6674750761620697  1.0000
  H   H20       1.0  0.6797514003073094  0.44217314962989424  0.3325249238338892  1.0000
  H   H21       1.0  0.47073468144352326  0.49833461929809614  0.7059906355716419  1.0000
  H   H22       1.0  0.529265318511685  0.5016653813215596  0.29400936442764664  1.0000
  H   H23       1.0  0.4667481463585675  0.27803210455539407  0.785457695521158  1.0000
  H   H24       1.0  0.5332518534063735  0.7219678950928318  0.2145423044840719  1.0000
  H   H25       1.0  0.30807241694733645  0.11637025570148776  0.8146774028305618  1.0000
  H   H26       1.0  0.6919275828176045  0.8836297439467379  0.18532259717466806  1.0000
  H   H27       1.0  0.5925563709992566  0.3120020850455209  0.5311265008467758  1.0000
  H   H28       1.0  0.4074436287656843  0.6879979146027049  0.46887349915845394  1.0000
  C   C1        1.0  0.9869009771496566  0.30634264178379345  0.6378003751479454  1.0000
  C   C2        1.0  0.013099023288101468  0.69365735785955  0.36219962484801355  1.0000
  C   C3        1.0  0.9684081437816727  0.42789228034335586  0.6569407304005971  1.0000
  C   C4        1.0  0.0315918559832683  0.5721077193048698  0.34305926960463284  1.0000
  C   C5        1.0  0.04227188821331535  0.5356591049897261  0.6971162777164095  1.0000
  C   C6        1.0  0.957728111741893  0.46434089562992953  0.3028837222828789  1.0000
  C   C7        1.0  0.13145654534607454  0.5192541317321441  0.7155270858084812  1.0000
  C   C8        1.0  0.8685434546091337  0.4807458688875116  0.2844729141908072  1.0000
  C   C9        1.0  0.14322721153908152  0.3937501551890263  0.695276912993609  1.0000
  C   C10       1.0  0.8567727882258596  0.6062498444591995  0.3047230870116208  1.0000
  C   C11       1.0  0.9120008994446109  0.18700240194950574  0.6004463117962371  1.0000
  C   C12       1.0  0.08799910032033015  0.81299759769872  0.39955368820899284  1.0000
  C   C13       1.0  0.82160479852174  0.18434757826891857  0.5551543196836479  1.0000
  C   C14       1.0  0.17839520124320116  0.8156524213793073  0.4448456803215819  1.0000
  C   C15       1.0  0.7554169749460793  0.06501508930512832  0.5300097846940591  1.0000
  C   C16       1.0  0.24458302481886174  0.9349849103430974  0.46999021531117074  1.0000
  C   C17       1.0  0.7797519067143022  0.9491433717752357  0.5486162703640326  1.0000
  C   C18       1.0  0.22024809305063875  0.05085662787299003  0.4513837296411973  1.0000
  C   C19       1.0  0.8707243320554791  0.9558662887140897  0.5901693785943871  1.0000
  C   C20       1.0  0.12927566770946197  0.04413371093413601  0.40983062141084275  1.0000
  C   C21       1.0  0.23524443046652962  0.36921226418984343  0.7188660041581422  1.0000
  C   C22       1.0  0.7647555699712285  0.6307877354535001  0.2811339958378166  1.0000
  C   C23       1.0  0.3202859255739586  0.461946561920932  0.7020572722333698  1.0000
  C   C24       1.0  0.6797140741909825  0.5380534377272937  0.29794272777186004  1.0000
  C   C25       1.0  0.40369144170609766  0.42865212423187293  0.7232868516674322  1.0000
  C   C26       1.0  0.5963085582491107  0.5713478763877827  0.27671314833185623  1.0000
  C   C27       1.0  0.40198897302290526  0.3044856509882223  0.7664379908071632  1.0000
  C   C28       1.0  0.5980110274148528  0.6955143486551213  0.23356200918879574  1.0000
  C   C29       1.0  0.3162819194040545  0.21548173301268603  0.7827786329272912  1.0000
  C   C30       1.0  0.6837180803608864  0.7845182666355398  0.21722136707793874  1.0000
  C   C31       1.0  0.06570849696418153  0.9181736716304242  0.7855720737361988  1.0000
  C   C32       1.0  0.9342915029910269  0.08182632898923152  0.21442792626308974  1.0000
  C   C33       1.0  0.11975421598279669  0.8965960419602612  0.9256830208036473  1.0000
  C   C34       1.0  0.8802457837821444  0.10340395768796458  0.07431697920158263  1.0000
  C   C35       1.0  0.49691565142001715  0.2050765946325628  0.3833082220854487  1.0000
  C   C36       1.0  0.5030843485351911  0.7949234059870929  0.6166917779138398  1.0000
  C   C37       1.0  0.48862049910637084  0.12146857032966589  0.2370584823988133  1.0000
  C   C38       1.0  0.5113795006585702  0.8785314293185598  0.7629415176064166  1.0000
  C   C39       1.0  0.6963046973474872  0.4433630504016189  0.6665646897470521  1.0000
  C   C40       1.0  0.30369530260772115  0.5566369502180368  0.33343531025223644  1.0000
  C   C41       1.0  0.7257546286296319  0.5135749337888015  0.8192425792945138  1.0000
  C   C42       1.0  0.2742453713255763  0.4864250668308542  0.18075742070477455  1.0000
  N   N1        1.0  0.07260215876912324  0.2896590385324899  0.6575005694556652  1.0000
  N   N2        1.0  0.9273978411860848  0.7103409620871657  0.34249943054362325  1.0000
  N   N3        1.0  0.9330424380386612  0.07234776902477984  0.6148944670769626  1.0000
  N   N4        1.0  0.06695756191654713  0.9276522315948759  0.3851055329223258  1.0000
  N   N5        1.0  0.23641688514130585  0.24868549790433495  0.7572040522000372  1.0000
  N   N6        1.0  0.7635831146236352  0.7513145017438908  0.24279594780519279  1.0000
  O   O1        1.0  0.0876198832808277  0.03409710421914643  0.7444496670592003  1.0000
  O   O2        1.0  0.9123801171569302  0.9659028954241969  0.2555503329367586  1.0000
  O   O3        1.0  0.009439544216110495  0.8208640114147645  0.7276480558429869  1.0000
  O   O4        1.0  0.9905604562216476  0.179135988228579  0.272351944152972  1.0000
  O   O5        1.0  0.5838090370203333  0.2508781450160271  0.4259002707631696  1.0000
  O   O6        1.0  0.41619096274460776  0.7491218546321986  0.5740997292420602  1.0000
  O   O7        1.0  0.42666731420660176  0.2185336183788347  0.44359986295868964  1.0000
  O   O8        1.0  0.5733326857486065  0.7814663822408209  0.5564001370405988  1.0000
  O   O9        1.0  0.6092501920330811  0.3840726951692221  0.6525251562976905  1.0000
  O   O10       1.0  0.3907498079221273  0.6159273054504337  0.347474843701598  1.0000
  O   O11       1.0  0.7592641711569261  0.4469373570974062  0.5785107935989705  1.0000
  O   O12       1.0  0.240735828608015  0.5530626425508195  0.4214892064062593  1.0000
  Cl  Cl1       1.0  0.14779940846298384  0.03845378283634539  0.043962702723544266  1.0000
  Cl  Cl2       1.0  0.8522005914922245  0.9615462177833103  0.9560372972757443  1.0000
  Cl  Cl3       1.0  0.22696530640883433  0.8646477718862742  0.8648921016398977  1.0000
  Cl  Cl4       1.0  0.7730346935463739  0.13535222873338137  0.13510789835939077  1.0000
  Cl  Cl5       1.0  0.05505168068785079  0.7628477220996063  0.019552555339783256  1.0000
  Cl  Cl6       1.0  0.9449483190770903  0.2371522775486195  0.9804474446654465  1.0000
  Cl  Cl7       1.0  0.37333896591083193  0.07597343964239489  0.16651020989597876  1.0000
  Cl  Cl8       1.0  0.6266610347171935  0.9240265609723785  0.8334897900940387  1.0000
  Cl  Cl9       1.0  0.564359588126763  0.21079086467278335  0.10723207888905224  1.0000
  Cl  Cl10      1.0  0.4356404118284453  0.7892091359468724  0.8927679211102362  1.0000
  Cl  Cl11      1.0  0.5230769123827366  0.9778860965754951  0.27784708892848725  1.0000
  Cl  Cl12      1.0  0.47692308738220446  0.02211390307273077  0.7221529110767426  1.0000
  Cl  Cl13      1.0  0.8282543644201966  0.6435685963892761  0.8101485979811025  1.0000
  Cl  Cl14      1.0  0.1717456353447445  0.3564314032589496  0.18985140202412742  1.0000
  Cl  Cl15      1.0  0.6353108919882096  0.5718021763994708  0.8992274589860771  1.0000
  Cl  Cl16      1.0  0.36468910777673136  0.42819782324875477  0.10077254101915263  1.0000
  Cl  Cl17      1.0  0.7504623561183718  0.390854866094005  0.9279185015293628  1.0000
  Cl  Cl18      1.0  0.24953764364656933  0.6091451335542208  0.07208149847586723  1.0000
