data_image0
_chemical_formula_structural       H28C30N12O18
_chemical_formula_sum              "H28 C30 N12 O18"
_cell_length_a       3.634483350542077
_cell_length_b       17.883558908977573
_cell_length_c       13.216853998648082
_cell_angle_alpha    90.0
_cell_angle_beta     92.54490380359974
_cell_angle_gamma    90.0

_space_group_name_H-M_alt    "P 1"
_space_group_IT_number       1

loop_
  _space_group_symop_operation_xyz
  'x, y, z'

loop_
  _atom_site_type_symbol
  _atom_site_label
  _atom_site_symmetry_multiplicity
  _atom_site_fract_x
  _atom_site_fract_y
  _atom_site_fract_z
  _atom_site_occupancy
  H   H1        1.0  0.45011149233897957  0.39767844846753697  0.8049647402272865  1.0000
  H   H2        1.0  0.5498885072809687  0.8976784487757091  0.19503525978328767  1.0000
  H   H3        1.0  0.3275790984094967  0.29638814494240034  0.678648958671374  1.0000
  H   H4        1.0  0.6724209012104516  0.7963881452505724  0.3213510413392003  1.0000
  H   H5        1.0  0.009548075845991738  0.32601978496982126  0.5147678760876964  1.0000
  H   H6        1.0  0.9904519237739566  0.8260197847188204  0.4852321239228779  1.0000
  H   H7        1.0  0.007117240933525354  0.6203977265638292  0.6737819662440885  1.0000
  H   H8        1.0  0.9928827614401543  0.12039772625565713  0.3262180338131273  1.0000
  H   H9        1.0  0.5494310840028565  0.4871573546597881  0.8998287828890279  1.0000
  H   H10       1.0  0.4505689156170919  0.9871573544087874  0.10017121712154618  1.0000
  H   H11       1.0  0.642403079038826  0.6004043957162143  0.0050450929184807985  1.0000
  H   H12       1.0  0.35759692058112236  0.10040439596721501  0.9949549070920933  1.0000
  H   H13       1.0  0.4253534848163613  0.7250482846281131  0.937701346467969  1.0000
  H   H14       1.0  0.5746465148035871  0.22504828431994106  0.06229865354260536  1.0000
  H   H15       1.0  0.0882985794645088  0.7282878473065975  0.7654821170286396  1.0000
  H   H16       1.0  0.9117014201554395  0.22828784755759823  0.23451788298193463  1.0000
  H   H17       1.0  0.7205520815879952  0.577332400253786  0.4952276332269452  1.0000
  H   H18       1.0  0.2794479180319533  0.07733239994561387  0.504772366783629  1.0000
  H   H19       1.0  0.8290217165131617  0.3584157886371429  0.37667341642648833  1.0000
  H   H20       1.0  0.17097828310678675  0.8584157883861421  0.623326583584086  1.0000
  H   H21       1.0  0.5316310777333404  0.4021561640278219  0.21504314773156305  1.0000
  H   H22       1.0  0.46836892188660806  0.9021561637768212  0.784956852279011  1.0000
  H   H23       1.0  0.3470138530548502  0.5366323777524139  0.19583489169023421  1.0000
  H   H24       1.0  0.6529861465650981  0.036632377444241825  0.80416510832034  1.0000
  H   H25       1.0  0.46076830923875983  0.6229313313250859  0.3466078087108397  1.0000
  H   H26       1.0  0.5392316903811886  0.12293133157608661  0.6533921912997346  1.0000
  H   H27       1.0  0.0032019631830182476  0.29967540226624817  0.9327504079965231  1.0000
  H   H28       1.0  0.9967980391906615  0.7996754020152473  0.0672495920606927  1.0000
  C   C1        1.0  0.20779970477000836  0.48326501307642145  0.705112988089887  1.0000
  C   C2        1.0  0.7922002948499399  0.9832650133845936  0.2948870119206871  1.0000
  C   C3        1.0  0.3147800419081799  0.4102523187550175  0.731870859789763  1.0000
  C   C4        1.0  0.6852199577117685  0.9102523190631896  0.26812914022081125  1.0000
  C   C5        1.0  0.2456736153528207  0.35356274509912367  0.661609267191392  1.0000
  C   C6        1.0  0.7543263870208591  0.8535627454072957  0.3383907328658239  1.0000
  C   C7        1.0  0.07206973421283486  0.37047122240719477  0.5685798391213668  1.0000
  C   C8        1.0  0.9279302654071134  0.8704712227153669  0.4314201608892074  1.0000
  C   C9        1.0  0.9777842444359197  0.4450547080986486  0.5476042500873257  1.0000
  C   C10       1.0  0.022215755184028598  0.9450547078476479  0.4523957499232486  1.0000
  C   C11       1.0  0.2736539175680543  0.5464982725051316  0.7755747965497896  1.0000
  C   C12       1.0  0.726346082051894  0.04649827275613236  0.22442520346078462  1.0000
  C   C13       1.0  0.4491299000016819  0.540782949256542  0.8713668188468922  1.0000
  C   C14       1.0  0.5508700996182664  0.04078294950754282  0.12863318116368205  1.0000
  C   C15       1.0  0.5026017490905342  0.6047175651693748  0.9306014690740974  1.0000
  C   C16       1.0  0.4973982532831454  0.10471756542037561  0.06939853098311842  1.0000
  C   C17       1.0  0.3816638800674601  0.6741841230465297  0.8941277616921431  1.0000
  C   C18       1.0  0.6183361195524882  0.1741841227383577  0.10587223831843097  1.0000
  C   C19       1.0  0.20202271174420358  0.6774498729063455  0.799614168757143  1.0000
  C   C20       1.0  0.7979772879231322  0.17744987315734626  0.2003858304975122  1.0000
  C   C21       1.0  0.802874218094314  0.4662720688002435  0.44868812614798215  1.0000
  C   C22       1.0  0.19712578152563442  0.9662720691084157  0.5513118738625921  1.0000
  C   C23       1.0  0.7470794457370886  0.4165326939628637  0.36824637865758075  1.0000
  C   C24       1.0  0.2529205538828598  0.9165326937118629  0.6317536213529935  1.0000
  C   C25       1.0  0.5819498226785084  0.44128576477237563  0.2771867721433491  1.0000
  C   C26       1.0  0.4180501769414399  0.9412857650805476  0.7228132278672252  1.0000
  C   C27       1.0  0.47673649374163046  0.5159125377090551  0.26583253009077223  1.0000
  C   C28       1.0  0.5232635058783179  0.015912537960055817  0.734167469919802  1.0000
  C   C29       1.0  0.5358178525431817  0.5638815182887179  0.3472620628829512  1.0000
  C   C30       1.0  0.4641821470767667  0.06388151798054574  0.652737937127623  1.0000
  N   N1        1.0  0.04504337063995661  0.5002594503440186  0.6147477902577492  1.0000
  N   N2        1.0  0.9549566289799918  0.00025945059501947135  0.38525220975282504  1.0000
  N   N3        1.0  0.1547715015793397  0.6148990715980867  0.7441024241318419  1.0000
  N   N4        1.0  0.8452284980406086  0.11489907184908733  0.2558975758787323  1.0000
  N   N5        1.0  0.6925795821536166  0.5382501116803893  0.43488726572161546  1.0000
  N   N6        1.0  0.30742041746633175  0.03825011137221724  0.5651127342889587  1.0000
  N   N7        1.0  0.5950460568514153  0.7101977858346834  0.5595231999469495  1.0000
  N   N8        1.0  0.40495394276853297  0.2101977855265114  0.4404768000636246  1.0000
  N   N9        1.0  0.9631146259714882  0.20621231315142277  0.8460862857483125  1.0000
  N   N10       1.0  0.03688537364846017  0.7062123134595949  0.15391371426226177  1.0000
  N   N11       1.0  0.9889948765737321  0.39369020091776125  0.03589300604421027  1.0000
  N   N12       1.0  0.011005123046216262  0.8936902006667604  0.9641069939663639  1.0000
  O   O1        1.0  0.721601636748287  0.6433803801895385  0.5784785999158318  1.0000
  O   O2        1.0  0.2783983628716614  0.14338038044053927  0.4215214000947424  1.0000
  O   O3        1.0  0.6566851504488223  0.7602999676520958  0.6247804774134477  1.0000
  O   O4        1.0  0.34331484917112615  0.2602999679030966  0.3752195225971266  1.0000
  O   O5        1.0  0.41676849291428353  0.7216373757418859  0.4780245338122299  1.0000
  O   O6        1.0  0.5832315067056649  0.2216373754337138  0.5219754661983443  1.0000
  O   O7        1.0  0.10277436559278479  0.24003795339892003  0.9301678881506426  1.0000
  O   O8        1.0  0.8972256340745509  0.7400379531479192  0.06983211110401256  1.0000
  O   O9        1.0  0.7687219586974748  0.24333451312173926  0.7855095081083522  1.0000
  O   O10       1.0  0.2312780409224735  0.7433345134299113  0.21449049190222202  1.0000
  O   O11       1.0  0.04398357180625689  0.13957199809636225  0.8367121853883613  1.0000
  O   O12       1.0  0.9560164305674228  0.6395719984045343  0.16328781466885453  1.0000
  O   O13       1.0  0.11550786487801333  0.3465446134935072  0.0982944480741987  1.0000
  O   O14       1.0  0.884492134741935  0.8465446132425064  0.9017055519363756  1.0000
  O   O15       1.0  0.9370155138559945  0.460545956871337  0.056930832551946885  1.0000
  O   O16       1.0  0.06298448851768522  0.9605459566203363  0.9430691675052689  1.0000
  O   O17       1.0  0.904917827849581  0.371689481597711  0.9424495343657233  1.0000
  O   O18       1.0  0.09508217181775462  0.8716894819058831  0.057550464888931875  1.0000
