data_image0
_chemical_formula_structural       H44C60N16O44S4
_chemical_formula_sum              "H44 C60 N16 O44 S4"
_cell_length_a       11.2856806823838
_cell_length_b       21.245388706024386
_cell_length_c       7.759155392999736
_cell_angle_alpha    90.0
_cell_angle_beta     90.0
_cell_angle_gamma    100.65488316848237

_space_group_name_H-M_alt    "P 1"
_space_group_IT_number       1

loop_
  _space_group_symop_operation_xyz
  'x, y, z'

loop_
  _atom_site_type_symbol
  _atom_site_label
  _atom_site_symmetry_multiplicity
  _atom_site_fract_x
  _atom_site_fract_y
  _atom_site_fract_z
  _atom_site_occupancy
  H   H1        1.0  0.959117291961468  0.5667168885897024  0.4463647774247016  1.0000
  H   H2        1.0  0.5408827088265927  0.9332831115844599  0.9463647778757986  1.0000
  H   H3        1.0  0.04088270861674988  0.43328311168604833  0.5536352221886924  1.0000
  H   H4        1.0  0.4591172917516251  0.06671688869129087  0.05363522302639547  1.0000
  H   H5        1.0  0.28176930452238963  0.669836422862347  0.47138591827917586  1.0000
  H   H6        1.0  0.2182306952032873  0.8301635770110246  0.9713859187302729  1.0000
  H   H7        1.0  0.7182306950097193  0.3301635769300629  0.5286140813342182  1.0000
  H   H8        1.0  0.7817693043288216  0.16983642278138533  0.028614080883121135  1.0000
  H   H9        1.0  0.05936820926164607  0.6337847171541284  0.5452783164797926  1.0000
  H   H10       1.0  0.44063179135160785  0.8662152827236562  0.04527831602869562  1.0000
  H   H11       1.0  0.9406317911580396  0.36621528264269454  0.45472168442240146  1.0000
  H   H12       1.0  0.559368209068078  0.13378471707316683  0.9547216835846984  1.0000
  H   H13       1.0  0.008042903981027062  0.6396850783601171  0.32600163186344966  1.0000
  H   H14       1.0  0.4919570957446498  0.8603149215132543  0.8260016310257466  1.0000
  H   H15       1.0  0.9919570955510818  0.36031492143229266  0.6739983677499444  1.0000
  H   H16       1.0  0.5080429039459909  0.13968507875808325  0.1739983685876474  1.0000
  H   H17       1.0  0.25248851619524665  0.6786301045104784  0.2458643374665644  1.0000
  H   H18       1.0  0.24751148368896214  0.8213698958418205  0.7458643379176615  1.0000
  H   H19       1.0  0.7475114834953941  0.32136989576085906  0.7541356621468297  1.0000
  H   H20       1.0  0.7524885168892557  0.1786301044339301  0.2541356629845327  1.0000
  H   H21       1.0  0.35927109436464705  0.6293910312380984  0.3125659452816275  1.0000
  H   H22       1.0  0.14072890536102975  0.8706089686352728  0.8125659457327246  1.0000
  H   H23       1.0  0.6407289062135707  0.37060896903765234  0.6874340543317665  1.0000
  H   H24       1.0  0.8592710941710789  0.1293910311571368  0.1874340551694696  1.0000
  H   H25       1.0  0.779644999217662  0.352896137179019  0.09967166796243417  1.0000
  H   H26       1.0  0.7203550002794106  0.1471038630113569  0.5996716684135313  1.0000
  H   H27       1.0  0.22035500047297868  0.6471038630923184  0.9003283316509599  1.0000
  H   H28       1.0  0.2796449994112302  0.8528961372599807  0.40032833119986283  1.0000
  H   H29       1.0  0.6791688490399641  0.5334610440610793  0.228830926830242  1.0000
  H   H30       1.0  0.8208311508605196  0.9665389561086698  0.728830927281339  1.0000
  H   H31       1.0  0.3208311504921446  0.4665389557313305  0.771169072783152  1.0000
  H   H32       1.0  0.1791688488301212  0.03346104416266782  0.2711690736208551  1.0000
  H   H33       1.0  0.373332884316914  0.3721937209314158  0.8833845712361845  1.0000
  H   H34       1.0  0.12666711605146086  0.12780627944592343  0.3833845707850874  1.0000
  H   H35       1.0  0.6266671153737267  0.6278062793399217  0.11661542837720958  1.0000
  H   H36       1.0  0.873332884526757  0.8721937208298274  0.6166154288283066  1.0000
  H   H37       1.0  0.15197695822794807  0.3368065156690879  0.8444807737594209  1.0000
  H   H38       1.0  0.3480230412528498  0.1631934847038381  0.34448077330832383  1.0000
  H   H39       1.0  0.8480230414626927  0.6631934846022496  0.15551922714277328  1.0000
  H   H40       1.0  0.6519769584377909  0.8368065155674993  0.6555192263050703  1.0000
  H   H41       1.0  0.11127771960871388  0.3068635153722165  0.3937274954895473  1.0000
  H   H42       1.0  0.38872228060112896  0.19313648452619497  0.8937274959406444  1.0000
  H   H43       1.0  0.8887222808109719  0.6931364844246065  0.6062725041238468  1.0000
  H   H44       1.0  0.6112777199770887  0.8068635157495556  0.1062725036727497  1.0000
  C   C1        1.0  0.276139232051726  0.6464155543413533  0.34510493144857307  1.0000
  C   C2        1.0  0.22386076767395077  0.8535844455320181  0.8451049306108701  1.0000
  C   C3        1.0  0.7238607674803826  0.35358444545105644  0.654895068164821  1.0000
  C   C4        1.0  0.7761392318581581  0.14641555426039177  0.15489506900252398  1.0000
  C   C5        1.0  0.03216656008607033  0.6077719272988792  0.425437571849402  1.0000
  C   C6        1.0  0.4678334406857156  0.8922280730578331  0.9254375723004991  1.0000
  C   C7        1.0  0.9678334404921475  0.3922280729768715  0.574562427763992  1.0000
  C   C8        1.0  0.5321665598925022  0.1077719272179176  0.07456242731289499  1.0000
  C   C9        1.0  0.49820418529375604  0.3867947298834386  0.17351906770866832  1.0000
  C   C10       1.0  0.0017958149160867962  0.11320527001497283  0.6735190681597654  1.0000
  C   C11       1.0  0.5017958151259296  0.6132052699133843  0.8264809319047257  1.0000
  C   C12       1.0  0.9982041847745541  0.8867947302563648  0.32648093145362866  1.0000
  C   C13       1.0  0.5901685066804779  0.3528991164082729  0.1333196150360995  1.0000
  C   C14       1.0  0.9098314926580627  0.14710088330317533  0.6333196154871966  1.0000
  C   C15       1.0  0.40983149285163073  0.6471008833841368  0.8666803845772946  1.0000
  C   C16       1.0  0.09016850687404601  0.8528991164892343  0.3666803854149976  1.0000
  C   C17       1.0  0.7112413265607307  0.38153397073442546  0.12688366454011465  1.0000
  C   C18       1.0  0.78875867277781  0.11846602897702276  0.6268836649912117  1.0000
  C   C19       1.0  0.28875867297137797  0.6184660290579843  0.8731163350732795  1.0000
  C   C20       1.0  0.21124132675429885  0.881533970815387  0.37311633591098237  1.0000
  C   C21       1.0  0.7402503663761214  0.4467881518363689  0.15806624920883858  1.0000
  C   C22       1.0  0.7597496338499963  0.05321184787949257  0.6580662496599357  1.0000
  C   C23       1.0  0.2597496340435643  0.5532118479604541  0.8419337504045554  1.0000
  C   C24       1.0  0.24025036656968954  0.9467881519173305  0.3419337499534584  1.0000
  C   C25       1.0  0.6531752732909596  0.48272850456248334  0.1998054506549374  1.0000
  C   C26       1.0  0.8468247270936902  0.017271495632305713  0.6998054511060345  1.0000
  C   C27       1.0  0.3468247272872582  0.5172714957132672  0.8001945489584568  1.0000
  C   C28       1.0  0.15317527332599562  0.9827285041645172  0.30019454979615967  1.0000
  C   C29       1.0  0.5323411984581464  0.4529296941226952  0.20904523467378575  1.0000
  C   C30       1.0  0.9676588008803942  0.04707030558875303  0.7090452351248828  1.0000
  C   C31       1.0  0.4676588010739623  0.5470703056697146  0.7909547649396084  1.0000
  C   C32       1.0  0.032341198651714524  0.9529296942036568  0.29095476577731133  1.0000
  C   C33       1.0  0.36789061585388966  0.3583049536198895  0.15832012864548156  1.0000
  C   C34       1.0  0.1321093843559532  0.14169504627852195  0.6583201290965786  1.0000
  C   C35       1.0  0.6321093836782191  0.6416950461725203  0.8416798709679125  1.0000
  C   C36       1.0  0.8678906162222646  0.8583049539972288  0.34167987180561554  1.0000
  C   C37       1.0  0.31568694036764045  0.35713832950414104  0.9941596680689474  1.0000
  C   C38       1.0  0.18431305984220245  0.14286167039427047  0.4941596689066504  1.0000
  C   C39       1.0  0.6843130591644684  0.6428616702882688  0.005840331544446689  1.0000
  C   C40       1.0  0.8156869405774835  0.8571383294025526  0.5058403319955438  1.0000
  C   C41       1.0  0.1920785482816298  0.33800867028090414  0.9718702794383199  1.0000
  C   C42       1.0  0.3079214519282131  0.1619913296175073  0.4718702802760229  1.0000
  C   C43       1.0  0.807921452138056  0.6619913295159188  0.028129720175074143  1.0000
  C   C44       1.0  0.6920785476038956  0.8380086701749024  0.5281297206261711  1.0000
  C   C45       1.0  0.11980795111366445  0.32102869744182927  0.11640513100367428  1.0000
  C   C46       1.0  0.38019204909617843  0.17897130245658222  0.6164051314547714  1.0000
  C   C47       1.0  0.8801920494645534  0.6789713028339215  0.8835948686097198  1.0000
  C   C48       1.0  0.6198079504359303  0.8210286973358275  0.38359486815862276  1.0000
  C   C49       1.0  0.16785430101635396  0.3208759878388366  0.2815633776288355  1.0000
  C   C50       1.0  0.33214569919348896  0.1791240120595749  0.7815633767911325  1.0000
  C   C51       1.0  0.8321456995618639  0.6791240124369141  0.7184366232733586  1.0000
  C   C52       1.0  0.6678543003386198  0.8208759877328348  0.2184366228222616  1.0000
  C   C53       1.0  0.29176017154998246  0.33900167965673594  0.29917155958679215  1.0000
  C   C54       1.0  0.20823982881839245  0.1609983207206033  0.7991715587490892  1.0000
  C   C55       1.0  0.7082398290282353  0.6609983206190148  0.7008284400266019  1.0000
  C   C56       1.0  0.7917601717598254  0.8390016795551474  0.20082844086430493  1.0000
  C   C57       1.0  0.440865057273246  0.4928017262809363  0.26253916010469946  1.0000
  C   C58       1.0  0.05913494204901991  0.00719827361306201  0.7625391605557966  1.0000
  C   C59       1.0  0.5591349424173948  0.5071982739904012  0.7374608395086947  1.0000
  C   C60       1.0  0.9408650574830889  0.9928017261793479  0.23746084034639758  1.0000
  N   N1        1.0  0.3427869620340214  0.33678444253275147  0.4720998323225778  1.0000
  N   N2        1.0  0.1572130381758215  0.16321555736566  0.9720998327736748  1.0000
  N   N3        1.0  0.6572130374980875  0.6632155572596583  0.5279001672908163  1.0000
  N   N4        1.0  0.8427869622438643  0.8367844424311629  0.02790016812851932  1.0000
  N   N5        1.0  0.9887776758905265  0.3045047220297112  0.09510736834395361  1.0000
  N   N6        1.0  0.5112223244941233  0.19549527816507797  0.5951073687950507  1.0000
  N   N7        1.0  0.011222324529159354  0.6954952777671118  0.9048926312694404  1.0000
  N   N8        1.0  0.48877767608409456  0.8045047221106728  0.40489263081834337  1.0000
  N   N9        1.0  0.5627046908198979  0.2836696343309007  0.10325362354809942  1.0000
  N   N10       1.0  0.9372953086771747  0.21633036585947524  0.6032536239991965  1.0000
  N   N11       1.0  0.4372953088707428  0.7163303659404368  0.8967463760652946  1.0000
  N   N12       1.0  0.06270469085493399  0.7836696339329344  0.39674637561419757  1.0000
  N   N13       1.0  0.8673544607080189  0.47844624552143344  0.15157907535414147  1.0000
  N   N14       1.0  0.6326455395180989  0.02155375419442792  0.6515790745164385  1.0000
  N   N15       1.0  0.1326455397116669  0.5215537542753895  0.8484209242592526  1.0000
  N   N16       1.0  0.36735446001401  0.9784462455979819  0.3484209250969556  1.0000
  O   O1        1.0  0.18881957834316315  0.5329396105005126  0.490282772714168  1.0000
  O   O2        1.0  0.3111804224286227  0.9670603898561996  0.990282773165265  1.0000
  O   O3        1.0  0.8111804222350547  0.46706038977523795  0.509717226899226  1.0000
  O   O4        1.0  0.6888195781495952  0.03293961041955112  0.009717226448129026  1.0000
  O   O5        1.0  0.27586898246641584  0.34009613464280664  0.596803459327259  1.0000
  O   O6        1.0  0.22413101774342709  0.15990386525560485  0.09680346016496201  1.0000
  O   O7        1.0  0.7241310179532701  0.6599038651540163  0.40319654028613505  1.0000
  O   O8        1.0  0.7758689817886817  0.8400961345368049  0.9031965407372322  1.0000
  O   O9        1.0  0.4496783290059601  0.33025810821396506  0.4831556812719871  1.0000
  O   O10       1.0  0.05032167120388277  0.1697418916844464  0.9831556817230842  1.0000
  O   O11       1.0  0.5503216715722578  0.6697418920617857  0.516844318341407  1.0000
  O   O12       1.0  0.9496783283282261  0.8302581081079634  0.016844317890309903  1.0000
  O   O13       1.0  0.9264922410559524  0.2896288536827497  0.22600342707172533  1.0000
  O   O14       1.0  0.5735077591701653  0.2103711460331117  0.7260034262340224  1.0000
  O   O15       1.0  0.07350775936373338  0.7103711461140733  0.7739965738304688  1.0000
  O   O16       1.0  0.42649224124952057  0.7896288537637114  0.2739965733793718  1.0000
  O   O17       1.0  0.9464153159249976  0.30719770639996424  0.9480410324861567  1.0000
  O   O18       1.0  0.5535846843011201  0.19280229331589718  0.4480410333238597  1.0000
  O   O19       1.0  0.05358468449468811  0.6928022933968587  0.051958967127237396  1.0000
  O   O20       1.0  0.4464153161185658  0.8071977064809258  0.5519589675783345  1.0000
  O   O21       1.0  0.4567729418062836  0.2552918218811745  0.12289128026231715  1.0000
  O   O22       1.0  0.043227058403559296  0.244708178017237  0.6228912794246142  1.0000
  O   O23       1.0  0.5432270587719342  0.7447081783945763  0.877108720639877  1.0000
  O   O24       1.0  0.9567729411285495  0.7552918217751727  0.37710872018877994  1.0000
  O   O25       1.0  0.6470481957824206  0.25698619590692706  0.062218065697658656  1.0000
  O   O26       1.0  0.8529518037146522  0.2430138042834489  0.5622180648599556  1.0000
  O   O27       1.0  0.35295180390822023  0.7430138043644104  0.9377819352045355  1.0000
  O   O28       1.0  0.1470481958174566  0.756986195508961  0.43778193475343846  1.0000
  O   O29       1.0  0.8884380158687283  0.5376331863755802  0.14225233599468878  1.0000
  O   O30       1.0  0.6115619838732234  0.9623668133152411  0.6422523364457858  1.0000
  O   O31       1.0  0.11156198366338047  0.46236681341682956  0.8577476636187052  1.0000
  O   O32       1.0  0.38843801565888536  0.037633186477168686  0.35774766445640827  1.0000
  O   O33       1.0  0.9452824626192059  0.44436458401262213  0.15699513133852266  1.0000
  O   O34       1.0  0.5547175376069119  0.055635415703239224  0.6569951305008197  1.0000
  O   O35       1.0  0.054717536912902855  0.5556354157797876  0.8430048695636715  1.0000
  O   O36       1.0  0.44528246281277406  0.9443645840935839  0.3430048691125744  1.0000
  O   O37       1.0  0.36194061068659356  0.4674243490967828  0.37041942639698056  1.0000
  O   O38       1.0  0.13805938879420432  0.032575651276143244  0.8704194255592775  1.0000
  O   O39       1.0  0.6380593890040472  0.5325756511745547  0.6295805745052137  1.0000
  O   O40       1.0  0.8619406108964365  0.9674243489951942  0.12958057405411655  1.0000
  O   O41       1.0  0.4483944867661393  0.5486216237568168  0.20229906097977454  1.0000
  O   O42       1.0  0.05160551384711452  0.9513783761209678  0.7022990614308716  1.0000
  O   O43       1.0  0.5516055136535465  0.4513783760400062  0.7977009386336195  1.0000
  O   O44       1.0  0.9483944865725712  0.04862162367585523  0.29770093818252247  1.0000
  S   S1        1.0  0.1595934876320242  0.5763422106949684  0.3502682124979698  1.0000
  S   S2        1.0  0.34040651209365264  0.9236577891784029  0.850268212949067  1.0000
  S   S3        1.0  0.8404065120586167  0.4236577895763692  0.6497317871154242  1.0000
  S   S4        1.0  0.6595934874384561  0.07634221061400678  0.14973178666432718  1.0000
