data_image0
_chemical_formula_structural       H54C48N2O2F12I2
_chemical_formula_sum              "H54 C48 N2 O2 F12 I2"
_cell_length_a       7.85434957922505
_cell_length_b       12.29985671892023
_cell_length_c       12.71527500713539
_cell_angle_alpha    105.86113789573218
_cell_angle_beta     98.2767500852436
_cell_angle_gamma    95.70104146490795

_space_group_name_H-M_alt    "P 1"
_space_group_IT_number       1

loop_
  _space_group_symop_operation_xyz
  'x, y, z'

loop_
  _atom_site_type_symbol
  _atom_site_label
  _atom_site_symmetry_multiplicity
  _atom_site_fract_x
  _atom_site_fract_y
  _atom_site_fract_z
  _atom_site_occupancy
  H   H1        1.0  0.8057422052806117  0.5548930838529927  0.4552943907275101  1.0000
  H   H2        1.0  0.194257794792259  0.44510691546216713  0.5447056088553697  1.0000
  H   H3        1.0  0.8712057005528346  0.6065216947402421  0.28815612753631675  1.0000
  H   H4        1.0  0.12879429965536887  0.39347830539201983  0.7118438720467626  1.0000
  H   H5        1.0  0.12455249034435828  0.935617863853231  0.5078994247713662  1.0000
  H   H6        1.0  0.8754475097285125  0.06438213546192892  0.4921005748115137  1.0000
  H   H7        1.0  0.04936608169261521  0.8691637840543028  0.6650376815658431  1.0000
  H   H8        1.0  0.9506339174662783  0.13083621633100145  0.3349623188429802  1.0000
  H   H9        1.0  0.9940482384526673  0.7353645664210566  0.20617641079303511  1.0000
  H   H10       1.0  0.005951761979995406  0.26463543396056344  0.7938235896209963  1.0000
  H   H11       1.0  0.16441786647633114  0.976257668219333  0.35118672458216055  1.0000
  H   H12       1.0  0.8355821324581031  0.02374233191661307  0.6488132749957106  1.0000
  H   H13       1.0  0.10448330392575796  0.7466791856080255  0.07314236299675066  1.0000
  H   H14       1.0  0.8955166962824453  0.2533208145242364  0.9268576365863285  1.0000
  H   H15       1.0  0.1658874056343399  0.7851017886785338  0.9012157561078028  1.0000
  H   H16       1.0  0.8341125935245537  0.21489821170677048  0.09878424430102054  1.0000
  H   H17       1.0  0.29670530080948787  0.14443757047154265  0.07531860529334541  1.0000
  H   H18       1.0  0.7032946983494057  0.8555624299137615  0.924681395115478  1.0000
  H   H19       1.0  0.23543978856334336  0.10653976890377082  0.24670100680913393  1.0000
  H   H20       1.0  0.7645602117339867  0.8934602306607473  0.753298993604698  1.0000
  H   H21       1.0  0.45732534864233243  0.11926862717406574  0.9287763879307265  1.0000
  H   H22       1.0  0.542674651565871  0.880731372958196  0.07122361165235289  1.0000
  H   H23       1.0  0.2406288788995986  0.1481993717318478  0.8936191077341381  1.0000
  H   H24       1.0  0.7593711213086048  0.851800628400414  0.10638089184894113  1.0000
  H   H25       1.0  0.2287088583791309  0.03906796949120888  0.6973257985099472  1.0000
  H   H26       1.0  0.7712911420535319  0.9609320308904112  0.3026742019040842  1.0000
  H   H27       1.0  0.43934951578706033  0.0036077638131307025  0.7301462950086782  1.0000
  H   H28       1.0  0.5606504830120411  0.9963922355057133  0.2698537045689937  1.0000
  H   H29       1.0  0.5661719473995221  0.209153070669266  0.7801838942540384  1.0000
  H   H30       1.0  0.4338280528086813  0.7908469294629958  0.2198161053290408  1.0000
  H   H31       1.0  0.35698190726307755  0.2476199361844913  0.7546809726753466  1.0000
  H   H32       1.0  0.6430180917604833  0.7523800633837109  0.24531902773327718  1.0000
  H   H33       1.0  0.5188935693652916  0.08526320833632603  0.5806733228539224  1.0000
  H   H34       1.0  0.48110643070757897  0.9147367909788338  0.4193266767289574  1.0000
  H   H35       1.0  0.3144236336505305  0.13024991285791424  0.5567723232377275  1.0000
  H   H36       1.0  0.6855763667821322  0.8697500875237058  0.4432276771763038  1.0000
  H   H37       1.0  0.6663380580552164  0.28522469055549127  0.6250855143296187  1.0000
  H   H38       1.0  0.33366194215298706  0.7147753095767705  0.37491448525346055  1.0000
  H   H39       1.0  0.46468783353514515  0.3343338388809166  0.6073681575237316  1.0000
  H   H40       1.0  0.5353121665377256  0.6656661604342433  0.3926318420591482  1.0000
  H   H41       1.0  0.5961554067353497  0.16032997693260223  0.4258797724018474  1.0000
  H   H42       1.0  0.4038445934728538  0.8396700231996597  0.5741202271812319  1.0000
  H   H43       1.0  0.3990561442159001  0.21572752189522185  0.4085290546731379  1.0000
  H   H44       1.0  0.6009438562167627  0.7842724784863984  0.5914709457408934  1.0000
  H   H45       1.0  0.7579225749625369  0.3618724627985752  0.47567668836502525  1.0000
  H   H46       1.0  0.24207742383656447  0.6381275365202688  0.5243233112126466  1.0000
  H   H47       1.0  0.5578182162939269  0.41008822362143477  0.44516059044162165  1.0000
  H   H48       1.0  0.4421817841387359  0.5899117767601852  0.5548394099724097  1.0000
  H   H49       1.0  0.710378930507074  0.23030102809023295  0.2781802475577402  1.0000
  H   H50       1.0  0.28962106992558895  0.7696989722913871  0.7218197528562912  1.0000
  H   H51       1.0  0.7094884560500027  0.37473619614887593  0.27922004481817564  1.0000
  H   H52       1.0  0.29051154424732734  0.625263803415642  0.7207799555956561  1.0000
  H   H53       1.0  0.5111355699953527  0.2806276654313392  0.24887894760658377  1.0000
  H   H54       1.0  0.48886443030197735  0.7193723341331789  0.751121052807248  1.0000
  C   C1        1.0  0.8750340416922847  0.6389045664690204  0.46293368347339436  1.0000
  C   C2        1.0  0.12496595838058601  0.36109543284613943  0.5370663161094854  1.0000
  C   C3        1.0  0.9118872055366907  0.6682901948636102  0.37001740881731354  1.0000
  C   C4        1.0  0.0881127948959721  0.3317098055180098  0.6299825915967178  1.0000
  C   C5        1.0  0.002267217700467231  0.7771725048694268  0.3815824090885052  1.0000
  C   C6        1.0  0.9977327827321956  0.22282749551219327  0.6184175913255261  1.0000
  C   C7        1.0  0.051577798388035466  0.8507684409606  0.4911437947424264  1.0000
  C   C8        1.0  0.9484222018201679  0.14923155917166184  0.508856204840653  1.0000
  C   C9        1.0  0.009763628211388209  0.8142607200849087  0.5795960566928545  1.0000
  C   C10       1.0  0.9902363722212747  0.18573928029671144  0.42040394372117673  1.0000
  C   C11       1.0  0.039427915773939747  0.8047783756453779  0.2828541042508036  1.0000
  C   C12       1.0  0.9605720844342638  0.19522162448688393  0.7171458953322757  1.0000
  C   C13       1.0  0.12247513055252648  0.9041830426204255  0.2759103032870187  1.0000
  C   C14       1.0  0.8775248698801364  0.09581695776119464  0.7240896971270127  1.0000
  C   C15       1.0  0.16092136805204282  0.9241196370771046  0.17391014371180047  1.0000
  C   C16       1.0  0.8390786320208278  0.07588036223805515  0.8260898558710792  1.0000
  C   C17       1.0  0.1433676740081354  0.8342836704084724  0.07420489392214386  1.0000
  C   C18       1.0  0.8566323262891946  0.16571632915604564  0.925795106491688  1.0000
  C   C19       1.0  0.17897019601689806  0.8546478776792619  0.9776234614877651  1.0000
  C   C20       1.0  0.8210298041913052  0.14535212245300003  0.022376538095314064  1.0000
  C   C21       1.0  0.2338662793606432  0.9666752609506527  0.9765056061331941  1.0000
  C   C22       1.0  0.7661337207122274  0.03332473836450699  0.023494393449685607  1.0000
  C   C23       1.0  0.25468074167885585  0.057311513041129074  0.07437846165804606  1.0000
  C   C24       1.0  0.7453192574800378  0.9426884873441752  0.9256215387507772  1.0000
  C   C25       1.0  0.21904999069649855  0.035166662559685286  0.17126177793997235  1.0000
  C   C26       1.0  0.7809500095117049  0.9648333375725766  0.828738221643107  1.0000
  C   C27       1.0  0.33287241895332076  0.0876351067829192  0.8704207830490941  1.0000
  C   C28       1.0  0.6671275812548827  0.9123648933493427  0.12957921653398524  1.0000
  C   C29       1.0  0.35673754093496657  0.07076539331964314  0.7513581976717472  1.0000
  C   C30       1.0  0.6432624592732368  0.9292346068126186  0.24864180191133203  1.0000
  C   C31       1.0  0.4356246297403985  0.17888896281236036  0.7291995000815094  1.0000
  C   C32       1.0  0.5643753704678051  0.8211110373199014  0.2708004995015699  1.0000
  C   C33       1.0  0.44670855988558394  0.15773681388781668  0.6065742776703426  1.0000
  C   C34       1.0  0.5532914392733097  0.8422631864974874  0.39342572273848075  1.0000
  C   C35       1.0  0.5322684726559491  0.2604621939973258  0.5784986076114296  1.0000
  C   C36       1.0  0.46773152627848513  0.7395378061386202  0.42150139196644165  1.0000
  C   C37       1.0  0.5338682391042094  0.23692468026396885  0.4546584754277486  1.0000
  C   C38       1.0  0.46613176096866127  0.7630753190511911  0.5453415241551313  1.0000
  C   C39       1.0  0.6272840759755579  0.33550622525010804  0.42386598432984496  1.0000
  C   C40       1.0  0.37271592432177225  0.6644937743144099  0.5761340160839868  1.0000
  C   C41       1.0  0.6408477738509192  0.304060229712027  0.30114188315819657  1.0000
  C   C42       1.0  0.35915222635728433  0.6959397704202348  0.6988581164248827  1.0000
  C   C43       1.0  0.8130552475776998  0.5379761786002049  0.854469127818636  1.0000
  C   C44       1.0  0.18694475122140183  0.4620238207186392  0.14553087175903578  1.0000
  C   C45       1.0  0.6319288028952613  0.5488655831563307  0.8894330280659037  1.0000
  C   C46       1.0  0.36807119717760944  0.45113441615882915  0.11056697151697606  1.0000
  C   C47       1.0  0.59662097341689  0.5019254049460159  0.9891185296385575  1.0000
  C   C48       1.0  0.40337902665598074  0.498074594369144  0.01088146994432232  1.0000
  N   N1        1.0  0.9221091094624974  0.710219178835055  0.5665598045593496  1.0000
  N   N2        1.0  0.07789089074570614  0.2897808212972067  0.43344019502372955  1.0000
  O   O1        1.0  0.2639992207036314  0.9770205498200718  0.8771310473943865  1.0000
  O   O2        1.0  0.7360007797290314  0.022979450561548393  0.12286895301964487  1.0000
  F   F1        1.0  0.8275970995844856  0.4240912117514258  0.816192069190613  1.0000
  F   F2        1.0  0.17240290084817725  0.5759087886301942  0.18380793122341835  1.0000
  F   F3        1.0  0.940467356121645  0.584322654577025  0.9468806877139279  1.0000
  F   F4        1.0  0.05953264431101781  0.415677345804595  0.053119312700103435  1.0000
  F   F5        1.0  0.5085286703509951  0.49378462064649137  0.7977293469107344  1.0000
  F   F6        1.0  0.4914713288078984  0.5062153797388128  0.20227065349808895  1.0000
  F   F7        1.0  0.6151181984895882  0.6626780172725366  0.9206815906545582  1.0000
  F   F8        1.0  0.3848818018077418  0.33732198229198146  0.07931840975927354  1.0000
  F   F9        1.0  0.6392438140183414  0.3942060163076742  0.9707791311352996  1.0000
  F   F10       1.0  0.3607561860545292  0.6057939830074857  0.029220868447580255  1.0000
  F   F11       1.0  0.7042973945312453  0.5718665581120411  0.08273672541370819  1.0000
  F   F12       1.0  0.2957026059014176  0.428133442269579  0.9172632750003231  1.0000
  I   I1        1.0  0.8550880110066821  0.6218835097796229  0.7249788273430176  1.0000
  I   I2        1.0  0.14491198942598077  0.3781164906019972  0.27502117307101376  1.0000
