data_image0
_chemical_formula_structural       H72C78P4I8
_chemical_formula_sum              "H72 C78 P4 I8"
_cell_length_a       8.469118679629606
_cell_length_b       15.305061345860558
_cell_length_c       14.657907783860729
_cell_angle_alpha    90.0
_cell_angle_beta     93.33160928022397
_cell_angle_gamma    90.0

_space_group_name_H-M_alt    "P 1"
_space_group_IT_number       1

loop_
  _space_group_symop_operation_xyz
  'x, y, z'

loop_
  _atom_site_type_symbol
  _atom_site_label
  _atom_site_symmetry_multiplicity
  _atom_site_fract_x
  _atom_site_fract_y
  _atom_site_fract_z
  _atom_site_occupancy
  H   H1        1.0  0.6560625914297055  0.3642897851897834  0.8511560546738925  1.0000
  H   H2        1.0  0.34393740894333613  0.8642897856517039  0.14884394541877063  1.0000
  H   H3        1.0  0.6799231524065397  0.3501026757693611  0.7320252805673148  1.0000
  H   H4        1.0  0.3200768479665019  0.8501026755779029  0.2679747195253484  1.0000
  H   H5        1.0  0.4374454762170397  0.08670506311684341  0.8762377781753385  1.0000
  H   H6        1.0  0.5625545241560018  0.5867050629253853  0.12376222191732457  1.0000
  H   H7        1.0  0.40135562339697384  0.7958460678299966  0.7118185037914372  1.0000
  H   H8        1.0  0.5986443769760676  0.2958460680214547  0.2881814963012259  1.0000
  H   H9        1.0  0.8182709149220517  0.6307909554776873  0.7374534072856018  1.0000
  H   H10       1.0  0.1817290842702358  0.13079095566914545  0.26254659280712417  1.0000
  H   H11       1.0  0.1628153981001409  0.17736674872813885  0.45001144173437496  1.0000
  H   H12       1.0  0.8371846022729007  0.6773667485366807  0.5499885583582882  1.0000
  H   H13       1.0  0.3804319568290491  0.28640778569538816  0.45620195889968596  1.0000
  H   H14       1.0  0.6195680435439924  0.7864077855039301  0.5437980411929773  1.0000
  H   H15       1.0  0.526893167804703  0.31994107173731634  0.6027226209130874  1.0000
  H   H16       1.0  0.4731068313875844  0.8199410715458582  0.3972773791796385  1.0000
  H   H17       1.0  0.4103237665867607  0.42547601102959537  0.7013372317738332  1.0000
  H   H18       1.0  0.5896762326055267  0.9254760114915158  0.29866276831889266  1.0000
  H   H19       1.0  0.40420878090722356  0.44370707549216715  0.8202050998618173  1.0000
  H   H20       1.0  0.5957912194658179  0.9437070753007091  0.17979490023084585  1.0000
  H   H21       1.0  0.6822203061884251  0.5064492362911317  0.7109581056659431  1.0000
  H   H22       1.0  0.3177796941846165  0.006449236482589875  0.28904189442672  1.0000
  H   H23       1.0  0.64122723144497  0.5345296653915507  0.8250300084975328  1.0000
  H   H24       1.0  0.3587727689280716  0.03452966558300882  0.17496999159513035  1.0000
  H   H25       1.0  0.16796436780828816  0.5218200057825997  0.7171483295202796  1.0000
  H   H26       1.0  0.8320356313151551  0.021820005974057897  0.2828516698890658  1.0000
  H   H27       1.0  0.9626594339160084  0.5216047802486693  0.8295015590804242  1.0000
  H   H28       1.0  0.037340565276279096  0.021604780440127522  0.17049844101230163  1.0000
  H   H29       1.0  0.9746289305445089  0.6261763637159168  0.958535919728094  1.0000
  H   H30       1.0  0.02537106982853262  0.12617636390737497  0.0414640803645691  1.0000
  H   H31       1.0  0.2751178001344125  0.578720369676635  0.3429245363909896  1.0000
  H   H32       1.0  0.724882200238629  0.0787203692147146  0.6570754637016736  1.0000
  H   H33       1.0  0.4989384538359672  0.487431942376219  0.40844237647435355  1.0000
  H   H34       1.0  0.5010615453563202  0.9874319428381394  0.5915576236183723  1.0000
  H   H35       1.0  0.5825242766623997  0.49788170513024127  0.5706163986587434  1.0000
  H   H36       1.0  0.41747572371064184  0.9978817055921617  0.42938360143391974  1.0000
  H   H37       1.0  0.49704112945499435  0.23236541687968232  0.9865016798295401  1.0000
  H   H38       1.0  0.5029588708492029  0.7323654173416028  0.01349831957974249  1.0000
  H   H39       1.0  0.31008071371309864  0.2734667085233213  0.10411617763198983  1.0000
  H   H40       1.0  0.6899192866599428  0.773466708331863  0.8958838224606734  1.0000
  H   H41       1.0  0.04726399767838012  0.3367560294943857  0.056628854020413524  1.0000
  H   H42       1.0  0.9527360026946614  0.8367560293029275  0.9433711460722496  1.0000
  H   H43       1.0  0.971728677180995  0.35910820517465664  0.8931997065790293  1.0000
  H   H44       1.0  0.028271323192046532  0.8591082056365772  0.10680029351363401  1.0000
  H   H45       1.0  0.15372491525899845  0.31659626711071837  0.7740763133768562  1.0000
  H   H46       1.0  0.846275085114043  0.8165962669192602  0.22592368671580687  1.0000
  H   H47       1.0  0.62238185685354  0.9692847957131709  0.9217549534193583  1.0000
  H   H48       1.0  0.37761814351950157  0.4692847959046291  0.07824504667330483  1.0000
  H   H49       1.0  0.9127276196053986  0.9867430177981329  0.8998286264709997  1.0000
  H   H50       1.0  0.08727238076764299  0.486743017989591  0.10017137362166344  1.0000
  H   H51       1.0  0.012126239308424182  0.12100276164530917  0.8303324575252723  1.0000
  H   H52       1.0  0.9878737610646173  0.621002761453851  0.16966754256739083  1.0000
  H   H53       1.0  0.8280536303164696  0.24040216349705326  0.7817456522071687  1.0000
  H   H54       1.0  0.17194637005657198  0.7404021639589737  0.21825434788549453  1.0000
  H   H55       1.0  0.09360354556537255  0.09957517030222068  0.5909892324735645  1.0000
  H   H56       1.0  0.906396454807669  0.5995751701107624  0.4090107676190987  1.0000
  H   H57       1.0  0.23121876418071072  0.13575060125857855  0.7393586865582786  1.0000
  H   H58       1.0  0.7687812361923307  0.635750601720499  0.2606413135343846  1.0000
  H   H59       1.0  0.5717059655567033  0.9258743875490969  0.7202249232622464  1.0000
  H   H60       1.0  0.42829403481633826  0.42587438774055497  0.27977507683041686  1.0000
  H   H61       1.0  0.8663257084689918  0.9097747970651526  0.7297620929001655  1.0000
  H   H62       1.0  0.13367429190404972  0.4097747966032321  0.27023790719249774  1.0000
  H   H63       1.0  0.987233792388942  0.762982619678184  0.7399491571450767  1.0000
  H   H64       1.0  0.01276620798409945  0.2629826198696421  0.2600508429475865  1.0000
  H   H65       1.0  0.1992450462103507  0.7319810791238673  0.9778466601400689  1.0000
  H   H66       1.0  0.8007549529819368  0.23198107931532547  0.02215333995265703  1.0000
  H   H67       1.0  0.41373428294146725  0.7287054195974481  0.8699826158306132  1.0000
  H   H68       1.0  0.5862657174315742  0.22870541978890616  0.13001738426204998  1.0000
  H   H69       1.0  0.21616272820135968  0.6914938510104306  0.6073400156539179  1.0000
  H   H70       1.0  0.783837272171682  0.1914938512018887  0.3926599844387453  1.0000
  H   H71       1.0  0.1393048309248591  0.683198261915367  0.44255951190276027  1.0000
  H   H72       1.0  0.8606951694481824  0.1831982621068251  0.5574404881899029  1.0000
  C   C1        1.0  0.5911615799509751  0.35648798438012547  0.7839641396786639  1.0000
  C   C2        1.0  0.40883842042206636  0.8564879848420459  0.21603586041399933  1.0000
  C   C3        1.0  0.3373654113136787  0.27078838276730677  0.8731287755829775  1.0000
  C   C4        1.0  0.6626345878786087  0.7707883825758486  0.12687122450974836  1.0000
  C   C5        1.0  0.6200950778107509  0.17178525721565274  0.8261018674165841  1.0000
  C   C6        1.0  0.37990492256229064  0.6717852570241946  0.1738981326760791  1.0000
  C   C7        1.0  0.5627728824431264  0.0949258449325288  0.8646472082720121  1.0000
  C   C8        1.0  0.43722711792991503  0.5949258447410707  0.13535279182065113  1.0000
  C   C9        1.0  0.5983550640318215  0.7044658931024864  0.7244503466474136  1.0000
  C   C10       1.0  0.401644935160466  0.20446589329394452  0.27554965344531235  1.0000
  C   C11       1.0  0.5294661448858643  0.7877245610165908  0.7182469779397372  1.0000
  C   C12       1.0  0.4705338554183329  0.28772456055467033  0.2817530214695455  1.0000
  C   C13       1.0  0.7636348893339518  0.6951445903794113  0.7322944859551351  1.0000
  C   C14       1.0  0.23636511103908978  0.1951445899174909  0.2677055141375281  1.0000
  C   C15       1.0  0.22612803374823387  0.19219006729401708  0.5149553167945053  1.0000
  C   C16       1.0  0.7738719654440536  0.6921900671025588  0.48504468329822054  1.0000
  C   C17       1.0  0.3481289648188452  0.25356854848867577  0.5182406895699044  1.0000
  C   C18       1.0  0.6518710355541963  0.7535685489505962  0.48175931052275867  1.0000
  C   C19       1.0  0.42944568292364016  0.27325882239153126  0.6011340657598508  1.0000
  C   C20       1.0  0.5705543162686474  0.773258822200073  0.39886593433287504  1.0000
  C   C21       1.0  0.3850557140360247  0.2320392091051966  0.6813088203266948  1.0000
  C   C22       1.0  0.6149442863370169  0.7320392089137385  0.31869117976596845  1.0000
  C   C23       1.0  0.4844838547684575  0.43546112945196175  0.7645813371996086  1.0000
  C   C24       1.0  0.515516145604584  0.9354611292605035  0.23541866289305446  1.0000
  C   C25       1.0  0.5859275557727437  0.5174746210437148  0.7572341235856911  1.0000
  C   C26       1.0  0.41407244341954375  0.017474621235172978  0.24276587650703477  1.0000
  C   C27       1.0  0.30741168432414095  0.6243423834811632  0.7876919943795109  1.0000
  C   C28       1.0  0.6925883160489006  0.12434238367262135  0.21230800571315223  1.0000
  C   C29       1.0  0.17806703710914795  0.5670268713001386  0.7749158244029338  1.0000
  C   C30       1.0  0.8219329620831395  0.06702687149159672  0.22508417568979208  1.0000
  C   C31       1.0  0.060540619531885505  0.56782596381755  0.8375030384318393  1.0000
  C   C32       1.0  0.9394593808411561  0.06782596400900814  0.1624969616608239  1.0000
  C   C33       1.0  0.06809378489609913  0.6266176464946903  0.9105283644882318  1.0000
  C   C34       1.0  0.9319062154769424  0.12661764668614847  0.0894716356044314  1.0000
  C   C35       1.0  0.3106585997459081  0.5828856682376397  0.4154377635105455  1.0000
  C   C36       1.0  0.6893413993775351  0.08288566842909784  0.5845622358987997  1.0000
  C   C37       1.0  0.4349729153236008  0.5313584033558628  0.4516567163659799  1.0000
  C   C38       1.0  0.5650270838686866  0.03135840354732105  0.5483432837267459  1.0000
  C   C39       1.0  0.48224359017403196  0.5369533126518755  0.5440932078615232  1.0000
  C   C40       1.0  0.5177564101990096  0.03695331284333376  0.45590679223114006  1.0000
  C   C41       1.0  0.4019878462551419  0.593834372474315  0.6006093066639149  1.0000
  C   C42       1.0  0.5980121541178997  0.09383437266577321  0.3993906934287483  1.0000
  C   C43       1.0  0.38138168634576475  0.25925047997753714  0.9661039098878702  1.0000
  C   C44       1.0  0.6186183140272767  0.7592504804394575  0.03389609020479295  1.0000
  C   C45       1.0  0.2767531506802449  0.2825193680892676  0.031878674117657595  1.0000
  C   C46       1.0  0.7232468485120426  0.7825193678978094  0.9681213259750683  1.0000
  C   C47       1.0  0.12929209386174742  0.3179983327094821  0.005353732245285786  1.0000
  C   C48       1.0  0.8707079065112941  0.817998332518024  0.9946462678473774  1.0000
  C   C49       1.0  0.08605627191289841  0.32992461486380803  0.9128417364928668  1.0000
  C   C50       1.0  0.9139437272793891  0.8299246153257285  0.08715826359985897  1.0000
  C   C51       1.0  0.18892622758762373  0.3062840405581154  0.8461988301821346  1.0000
  C   C52       1.0  0.8110737727165735  0.8062840403666574  0.1538011692271479  1.0000
  C   C53       1.0  0.6679162897012632  0.028221428861951014  0.8907479807430808  1.0000
  C   C54       1.0  0.33208371067177844  0.5282214293238715  0.1092520193495823  1.0000
  C   C55       1.0  0.8291437091804574  0.0378748707307064  0.8783234432243299  1.0000
  C   C56       1.0  0.17085629001183011  0.5378748705392482  0.12167655686839603  1.0000
  C   C57       1.0  0.8859448605293546  0.11414548824872882  0.8394008527541948  1.0000
  C   C58       1.0  0.11405513984368694  0.6141454880572706  0.1605991473384683  1.0000
  C   C59       1.0  0.7824245505832563  0.18148147970352513  0.8128623130827846  1.0000
  C   C60       1.0  0.21757544978978516  0.681481479512067  0.18713768700987857  1.0000
  C   C61       1.0  0.18539821766297895  0.1493974704399615  0.5942883759690996  1.0000
  C   C62       1.0  0.8146017827100626  0.6493974702485034  0.4057116241235636  1.0000
  C   C63       1.0  0.2638050788984433  0.16942673612355902  0.6776627229488076  1.0000
  C   C64       1.0  0.7361949214745983  0.6694267359321008  0.3223372771438557  1.0000
  C   C65       1.0  0.6260641291865527  0.8613817195555142  0.7214966256269061  1.0000
  C   C66       1.0  0.3739358700057346  0.36138171974697236  0.2785033744658198  1.0000
  C   C67       1.0  0.7902881403191758  0.8523765436280569  0.7280926935365964  1.0000
  C   C68       1.0  0.20971186005386572  0.3523765438195151  0.27190730655606676  1.0000
  C   C69       1.0  0.8589234079504537  0.7694218927900591  0.7335877575292287  1.0000
  C   C70       1.0  0.1410765912418336  0.2694218923281386  0.26641224256349716  1.0000
  C   C71       1.0  0.1942451199919476  0.6850565105925401  0.9217272216675171  1.0000
  C   C72       1.0  0.8057548803810939  0.1850565101306197  0.0782727784251461  1.0000
  C   C73       1.0  0.3149485197329622  0.6834568188665987  0.8610577621453367  1.0000
  C   C74       1.0  0.6850514806400795  0.1834568184046782  0.13894223794732652  1.0000
  C   C75       1.0  0.27720491505914135  0.6459975472541356  0.5641858479584815  1.0000
  C   C76       1.0  0.7227950853139001  0.14599754744559376  0.4358141521341816  1.0000
  C   C77       1.0  0.23293086360636542  0.6408261749733308  0.47133633815777776  1.0000
  C   C78       1.0  0.767069135585922  0.14082617516478899  0.5286636619349482  1.0000
  P   P1        1.0  0.4830421159265345  0.25609964321117273  0.7901043238981309  1.0000
  P   P2        1.0  0.516957884446507  0.7560996430197147  0.20989567619453225  1.0000
  P   P3        1.0  0.4720398067888919  0.6105639538993024  0.7171780176192609  1.0000
  P   P4        1.0  0.5279601935841496  0.11056395409076052  0.28282198247340234  1.0000
  I   I1        1.0  0.26234886646152894  0.9682028856426518  0.9975265018721825  1.0000
  I   I2        1.0  0.7376511339115125  0.46820288583410996  0.002473498220480737  1.0000
  I   I3        1.0  0.0730541084602472  0.8930724478080463  0.36658016535936183  1.0000
  I   I4        1.0  0.9269458919127943  0.39307244734612584  0.6334198347333013  1.0000
  I   I5        1.0  0.2068519927487321  0.9340830700993291  0.7795789580707114  1.0000
  I   I6        1.0  0.7931480064435554  0.43408307029078724  0.22042104202201443  1.0000
  I   I7        1.0  0.15081385456563448  0.9025910832912946  0.5849143870200225  1.0000
  I   I8        1.0  0.8491861446266531  0.40259108348275274  0.4150856130727035  1.0000
