data_image0
_chemical_formula_structural       H52C44N12O12S4
_chemical_formula_sum              "H52 C44 N12 O12 S4"
_cell_length_a       19.05489535490553
_cell_length_b       9.363369531587807
_cell_length_c       7.469592196658029
_cell_angle_alpha    90.0
_cell_angle_beta     104.65909950502353
_cell_angle_gamma    90.0

_space_group_name_H-M_alt    "P 1"
_space_group_IT_number       1

loop_
  _space_group_symop_operation_xyz
  'x, y, z'

loop_
  _atom_site_type_symbol
  _atom_site_label
  _atom_site_symmetry_multiplicity
  _atom_site_fract_x
  _atom_site_fract_y
  _atom_site_fract_z
  _atom_site_occupancy
  H   H1        1.0  0.6594131524768824  0.1264020731006328  0.6078468946368097  1.0000
  H   H2        1.0  0.3405868477390362  0.1264020731006328  0.3921531059405302  1.0000
  H   H3        1.0  0.15941315231972109  0.6264020735498405  0.6078468946526433  1.0000
  H   H4        1.0  0.8405868473540048  0.6264020735498405  0.3921531055328686  1.0000
  H   H5        1.0  0.6624890652691879  0.03850865746391787  0.8192325047270897  1.0000
  H   H6        1.0  0.3375109349467307  0.03850865746391787  0.18076749585025018  1.0000
  H   H7        1.0  0.16248906511202663  0.5385086579131255  0.8192325047429233  1.0000
  H   H8        1.0  0.837510935103892  0.5385086579131255  0.1807674958344166  1.0000
  H   H9        1.0  0.603243847531947  0.1861965550028181  0.748376734843628  1.0000
  H   H10       1.0  0.39675615214177884  0.1861965550028181  0.25162326534188395  1.0000
  H   H11       1.0  0.10324384739172385  0.6861965554520256  0.7483767335322878  1.0000
  H   H12       1.0  0.8967561522989401  0.6861965554520256  0.25162326532605045  1.0000
  H   H13       1.0  0.7456819580259608  0.3659981546641859  0.03707243645911535  1.0000
  H   H14       1.0  0.25431804166470307  0.3659981546641859  0.9629275623992231  1.0000
  H   H15       1.0  0.24568195841099238  0.8659981551133934  0.03707243686677694  1.0000
  H   H16       1.0  0.7543180418218643  0.8659981551133934  0.9629275623833895  1.0000
  H   H17       1.0  0.6867516374220289  0.4755426948577272  0.8750036120098662  1.0000
  H   H18       1.0  0.3132483627938897  0.4755426948577272  0.1249963885674738  1.0000
  H   H19       1.0  0.18675163726486765  0.9755426953069347  0.8750036120256997  1.0000
  H   H20       1.0  0.8132483624088582  0.9755426953069347  0.12499638815981219  1.0000
  H   H21       1.0  0.7540790144146922  0.3729483866058451  0.49410412091732925  1.0000
  H   H22       1.0  0.24592098581816454  0.3729483866058451  0.5058958783328371  1.0000
  H   H23       1.0  0.2540790142575309  0.8729483870550527  0.49410412093316286  1.0000
  H   H24       1.0  0.7459209859753257  0.8729483870550527  0.5058958783170036  1.0000
  H   H25       1.0  0.6898086423237862  0.4758530980721037  0.5668461745573437  1.0000
  H   H26       1.0  0.3101913578921323  0.4758530980721037  0.43315382601999636  1.0000
  H   H27       1.0  0.18980864216662496  0.9758530974533196  0.5668461745731772  1.0000
  H   H28       1.0  0.8101913580492937  0.9758530974533196  0.43315382600416275  1.0000
  H   H29       1.0  0.8336555888205901  0.22886430069545782  0.9409228838848238  1.0000
  H   H30       1.0  0.16634441139532843  0.22886430069545782  0.05907711669251616  1.0000
  H   H31       1.0  0.33365558866342887  0.7288643011446654  0.9409228839006574  1.0000
  H   H32       1.0  0.6663444110102971  0.7288643011446654  0.059077116284854556  1.0000
  H   H33       1.0  0.8328312747384798  0.22479146346828785  0.7040404495796453  1.0000
  H   H34       1.0  0.16716872495218427  0.22479146346828785  0.29595954927869306  1.0000
  H   H35       1.0  0.3328312751235112  0.7247914628495038  0.704040449987307  1.0000
  H   H36       1.0  0.6671687251093456  0.7247914628495038  0.29595954926285956  1.0000
  H   H37       1.0  0.8907100987864702  0.9352360910736186  0.8129823487945327  1.0000
  H   H38       1.0  0.10928990088725565  0.9352360910736186  0.18701765139097934  1.0000
  H   H39       1.0  0.3907100991715016  0.4352360916924027  0.8129823492021941  1.0000
  H   H40       1.0  0.6092899010444169  0.4352360916924027  0.1870176513751458  1.0000
  H   H41       1.0  0.8283394590815509  0.7138790002306465  0.7135221451681768  1.0000
  H   H42       1.0  0.17166054059217492  0.7138790002306465  0.28647785501733514  1.0000
  H   H43       1.0  0.32833945892438965  0.21387899978143887  0.7135221451840102  1.0000
  H   H44       1.0  0.6716605407493362  0.21387899978143887  0.2864778550015016  1.0000
  H   H45       1.0  0.850186431480582  0.5829412949671764  0.8913658749568563  1.0000
  H   H46       1.0  0.14981356819314373  0.5829412949671764  0.10863412522865575  1.0000
  H   H47       1.0  0.35018643132342087  0.08294129558596042  0.8913658749726896  1.0000
  H   H48       1.0  0.649813568350305  0.08294129558596042  0.10863412521282223  1.0000
  H   H49       1.0  0.8883523488049495  0.5694784053979101  0.7003075825161263  1.0000
  H   H50       1.0  0.11164765141096904  0.5694784053979101  0.2996924180612138  1.0000
  H   H51       1.0  0.3883523486477883  0.06947840494870246  0.7003075825319598  1.0000
  H   H52       1.0  0.6116476510259377  0.06947840494870246  0.29969241765355215  1.0000
  C   C1        1.0  0.5656672881043808  0.8503429425848816  0.5856725043691874  1.0000
  C   C2        1.0  0.43433271156934505  0.8503429425848816  0.41432749581632466  1.0000
  C   C3        1.0  0.06566728794721954  0.3503429432036656  0.5856725043850208  1.0000
  C   C4        1.0  0.9343327117265063  0.3503429432036656  0.4143274958004911  1.0000
  C   C5        1.0  0.5657698290271634  0.9951866652879858  0.5992603752732664  1.0000
  C   C6        1.0  0.4342301711887551  0.9951866652879858  0.40073962530407353  1.0000
  C   C7        1.0  0.06576982887000211  0.4951866659067699  0.5992603752890999  1.0000
  C   C8        1.0  0.9342301713459166  0.4951866659067699  0.40073962528824003  1.0000
  C   C9        1.0  0.5000000001164284  0.07041072209912037  0.49999999962508324  1.0000
  C   C10       1.0  0.9999999999592671  0.570410722548328  0.49999999964091674  1.0000
  C   C11       1.0  0.5000000001164284  0.7692715518382991  0.49999999962508324  1.0000
  C   C12       1.0  0.9999999999592671  0.26927155138909153  0.49999999964091674  1.0000
  C   C13       1.0  0.6264636743961715  0.0904071517357332  0.7002878122026122  1.0000
  C   C14       1.0  0.37353632581974705  0.0904071517357332  0.2997121883747279  1.0000
  C   C15       1.0  0.12646367423901025  0.5904071521849408  0.7002878122184456  1.0000
  C   C16       1.0  0.8735363254347156  0.5904071521849408  0.2997121879670662  1.0000
  C   C17       1.0  0.5000000001164284  0.2136164639505388  0.49999999962508324  1.0000
  C   C18       1.0  0.9999999999592671  0.7136164633317548  0.49999999964091674  1.0000
  C   C19       1.0  0.5000000001164284  0.6251798554197759  0.49999999962508324  1.0000
  C   C20       1.0  0.9999999999592671  0.12517985603855994  0.49999999964091674  1.0000
  C   C21       1.0  0.7547813155209393  0.35077843173012435  0.7684575294143344  1.0000
  C   C22       1.0  0.2452186847119175  0.35077843173012435  0.23154246983583193  1.0000
  C   C23       1.0  0.25478131536377796  0.8507784311113404  0.7684575294301681  1.0000
  C   C24       1.0  0.7452186848690788  0.8507784311113404  0.2315424698199984  1.0000
  C   C25       1.0  0.0  0.6534139947547819  0.0  1.0000
  C   C26       1.0  0.5000000001571613  0.15341399430557434  0.9999999999841664  1.0000
  C   C27       1.0  0.9358044134805094  0.7321236374228124  0.8951391079180276  1.0000
  C   C28       1.0  0.0641955867523474  0.7321236374228124  0.10486089133213858  1.0000
  C   C29       1.0  0.435804413323348  0.2321236369736048  0.8951391079338613  1.0000
  C   C30       1.0  0.5641955869095087  0.2321236369736048  0.10486089131630506  1.0000
  C   C31       1.0  0.9371281504122951  0.8764185277870173  0.894986483578537  1.0000
  C   C32       1.0  0.06287184926143077  0.8764185277870173  0.10501351660697483  1.0000
  C   C33       1.0  0.4371281508142647  0.37641852840580137  0.8949864826590251  1.0000
  C   C34       1.0  0.562871849418592  0.37641852840580137  0.10501351659114126  1.0000
  C   C35       1.0  0.0  0.9561308767957862  0.0  1.0000
  C   C36       1.0  0.5000000001571613  0.4561308763465787  0.9999999999841664  1.0000
  C   C37       1.0  0.0  0.5113583965523639  0.0  1.0000
  C   C38       1.0  0.5000000001571613  0.011358397171147967  0.9999999999841664  1.0000
  C   C39       1.0  0.8719382593198284  0.6462400281850135  0.7935477448275619  1.0000
  C   C40       1.0  0.12806174035389736  0.6462400281850135  0.20645225535794995  1.0000
  C   C41       1.0  0.3719382597048599  0.14624002880379744  0.7935477452352234  1.0000
  C   C42       1.0  0.6280617405110587  0.14624002880379744  0.2064522553421164  1.0000
  C   C43       1.0  0.0  0.09809410350637368  0.0  1.0000
  C   C44       1.0  0.5000000001571613  0.5980941039555813  0.9999999999841664  1.0000
  N   N1        1.0  0.7245009386191451  0.39554039040174016  0.9023568978801321  1.0000
  N   N2        1.0  0.2754990615967735  0.39554039040174016  0.09764310269720784  1.0000
  N   N3        1.0  0.2245009384619838  0.8955403908509478  0.9023568978959656  1.0000
  N   N4        1.0  0.7754990612117421  0.8955403908509478  0.09764310228954622  1.0000
  N   N5        1.0  0.7277691005338631  0.39593791503082193  0.5945227381358626  1.0000
  N   N6        1.0  0.2722308996989936  0.39593791503082193  0.40547726111430377  1.0000
  N   N7        1.0  0.22776910037670178  0.8959379154800295  0.5945227381516962  1.0000
  N   N8        1.0  0.7722308998561549  0.8959379154800295  0.40547726109847027  1.0000
  N   N9        1.0  0.8101475410360388  0.2587798155168087  0.8069766165986131  1.0000
  N   N10       1.0  0.18985245919681798  0.2587798155168087  0.1930233826515534  1.0000
  N   N11       1.0  0.31014754087887747  0.7587798159660163  0.8069766166144465  1.0000
  N   N12       1.0  0.6898524588117866  0.7587798159660163  0.1930233822438918  1.0000
  O   O1        1.0  0.7082534466702991  0.8347087844427564  0.7070153257460345  1.0000
  O   O2        1.0  0.29174655300342667  0.8347087844427564  0.29298467443947734  1.0000
  O   O3        1.0  0.20825344707226875  0.33470878399354886  0.7070153248265227  1.0000
  O   O4        1.0  0.791746553160588  0.33470878399354886  0.2929846744236438  1.0000
  O   O5        1.0  0.6418298887754095  0.6474647368714873  0.5039988017260955  1.0000
  O   O6        1.0  0.35817011091525447  0.6474647368714873  0.49600119713224294  1.0000
  O   O7        1.0  0.1418298886182482  0.14746473642227967  0.5039988017419289  1.0000
  O   O8        1.0  0.8581701110724158  0.14746473642227967  0.4960011971164094  1.0000
  O   O9        1.0  0.6363019040959765  0.6590494606863558  0.8262528452486216  1.0000
  O   O10       1.0  0.363698096119942  0.6590494606863558  0.1737471553287184  1.0000
  O   O11       1.0  0.13630190393881525  0.15904946023714822  0.8262528452644552  1.0000
  O   O12       1.0  0.8636980962771033  0.15904946023714822  0.17374715531288487  1.0000
  S   S1        1.0  0.6439513404811312  0.7409816515939069  0.6647405013750921  1.0000
  S   S2        1.0  0.3560486597347875  0.7409816515939069  0.3352594992022479  1.0000
  S   S3        1.0  0.14395134032396983  0.24098165114469938  0.6647405013909256  1.0000
  S   S4        1.0  0.8560486598919487  0.24098165114469938  0.33525949918641434  1.0000
