data_image0
_chemical_formula_structural       H6C42Cl28
_chemical_formula_sum              "H6 C42 Cl28"
_cell_length_a       7.368475814078851
_cell_length_b       12.120046290730722
_cell_length_c       16.276284927184278
_cell_angle_alpha    72.82441242602161
_cell_angle_beta     78.54052199114264
_cell_angle_gamma    73.45815688073638

_space_group_name_H-M_alt    "P 1"
_space_group_IT_number       1

loop_
  _space_group_symop_operation_xyz
  'x, y, z'

loop_
  _atom_site_type_symbol
  _atom_site_label
  _atom_site_symmetry_multiplicity
  _atom_site_fract_x
  _atom_site_fract_y
  _atom_site_fract_z
  _atom_site_occupancy
  H   H1        1.0  0.07867846139614565  0.1889534839377139  0.4091732793078657  1.0000
  H   H2        1.0  0.9213215380996835  0.8110465153262968  0.5908267209928936  1.0000
  H   H3        1.0  0.7517941821895049  0.16134601409346627  0.42209172184275345  1.0000
  H   H4        1.0  0.24820581884411036  0.8386539853997701  0.5779082778120075  1.0000
  H   H5        1.0  0.3270159730048921  0.02813486724088529  0.4872124574085869  1.0000
  H   H6        1.0  0.672984027622656  0.9718651331124579  0.5127875422478677  1.0000
  C   C1        1.0  0.5488291320772621  0.35881415197686384  0.6414422448961444  1.0000
  C   C2        1.0  0.4511708671945035  0.6411858483756399  0.35855775475815116  1.0000
  C   C3        1.0  0.6327970185409899  0.4522299352672213  0.5905458298051902  1.0000
  C   C4        1.0  0.36720298190455425  0.5477700648577357  0.4094541704994215  1.0000
  C   C5        1.0  0.4654007653137109  0.19636515122136564  0.8307177977304164  1.0000
  C   C6        1.0  0.5345992353138372  0.8036348491319775  0.16928220192603807  1.0000
  C   C7        1.0  0.5911448362981973  0.5587727911513753  0.6162310328124989  1.0000
  C   C8        1.0  0.40885516279156475  0.441227208972742  0.38376896748995387  1.0000
  C   C9        1.0  0.5014569859203043  0.07850428441584195  0.8389606297124009  1.0000
  C   C10       1.0  0.4985430133514615  0.9214957159366616  0.16103936994189466  1.0000
  C   C11       1.0  0.45510164415535614  0.5770813551837625  0.6885022808856607  1.0000
  C   C12       1.0  0.5448983549344059  0.4229186449403548  0.3114977194167921  1.0000
  C   C13       1.0  0.39100315330592966  0.025750495604703782  0.798587339914619  1.0000
  C   C14       1.0  0.6089968477276855  0.9742495038885325  0.20141265974014197  1.0000
  C   C15       1.0  0.34858828648115003  0.491876434984755  0.7295195840396251  1.0000
  C   C16       1.0  0.6514117126086121  0.5081235651393624  0.27048041626282754  1.0000
  C   C17       1.0  0.18631628165003575  0.4881089676621923  0.7986270794067009  1.0000
  C   C18       1.0  0.8136837187955086  0.5118910324627646  0.20137292089791084  1.0000
  C   C19       1.0  0.03855525651039053  0.5772921515429985  0.8259199944971037  1.0000
  C   C20       1.0  0.9614447439351539  0.4227078485819584  0.17408000580750804  1.0000
  C   C21       1.0  0.2371999100624752  0.11505045419373455  0.7489413471782043  1.0000
  C   C22       1.0  0.7628000907891361  0.8849495450711158  0.25105865312471387  1.0000
  C   C23       1.0  0.9002389915024814  0.544225030605027  0.8958684258406259  1.0000
  C   C24       1.0  0.0997610091250667  0.45577496974831605  0.10413157381582869  1.0000
  C   C25       1.0  0.20548487061857199  0.2328251592177867  0.7399446807054219  1.0000
  C   C26       1.0  0.7945151288772571  0.767174840046224  0.2600553195953373  1.0000
  C   C27       1.0  0.9043734272898603  0.4236400590077117  0.9357323794276574  1.0000
  C   C28       1.0  0.09562657198190554  0.5763599413447918  0.06426762022663807  1.0000
  C   C29       1.0  0.04207422886912868  0.33473270802263005  0.9024286097182116  1.0000
  C   C30       1.0  0.9579257717584195  0.6652672923307132  0.09757138993824292  1.0000
  C   C31       1.0  0.1761663275394962  0.36826397846083164  0.8333926007651681  1.0000
  C   C32       1.0  0.8238336721383369  0.631736021031565  0.16660739888743392  1.0000
  C   C33       1.0  0.31545402084990776  0.28869241959995495  0.7789138546412244  1.0000
  C   C34       1.0  0.6845459788279252  0.711307579892442  0.2210861450113776  1.0000
  C   C35       1.0  0.40992149042874715  0.3797820350622909  0.710077647259892  1.0000
  C   C36       1.0  0.5900785088430187  0.6202179652902128  0.2899223523944036  1.0000
  C   C37       1.0  0.04443857238560931  0.10599973989985027  0.4489976561333345  1.0000
  C   C38       1.0  0.9555614282419388  0.8940002604534929  0.55100234352312  1.0000
  C   C39       1.0  0.8605239104007055  0.0906007327989689  0.4562120141796864  1.0000
  C   C40       1.0  0.1394760900448388  0.909399267325988  0.5437879861249254  1.0000
  C   C41       1.0  0.18385492350036176  0.01553375888243214  0.4927602602667993  1.0000
  C   C42       1.0  0.8161450755894003  0.9844662412416851  0.5072397400356535  1.0000
  Cl  Cl1       1.0  0.6194542317806714  0.22321689572542863  0.6179564727331576  1.0000
  Cl  Cl2       1.0  0.3805457674910945  0.7767831046270749  0.38204352692113813  1.0000
  Cl  Cl3       1.0  0.7923770199398912  0.4326422025746463  0.5010952500242833  1.0000
  Cl  Cl4       1.0  0.20762298068765692  0.5673577977786969  0.49890474963217124  1.0000
  Cl  Cl5       1.0  0.5911436593876804  0.25308988245294467  0.8793589030109765  1.0000
  Cl  Cl6       1.0  0.4088563410578639  0.7469101176720122  0.12064109729363513  1.0000
  Cl  Cl7       1.0  0.7094012916830296  0.6667236675353132  0.5599874873023891  1.0000
  Cl  Cl8       1.0  0.29059870799480336  0.3332763319570835  0.4400125123502131  1.0000
  Cl  Cl9       1.0  0.6764808061595454  0.9795721444639809  0.8966983018273696  1.0000
  Cl  Cl10      1.0  0.3235191929302166  0.020427855660136468  0.10330169847508316  1.0000
  Cl  Cl11      1.0  0.4451446163903639  0.6938056184834442  0.7294633964976059  1.0000
  Cl  Cl12      1.0  0.5548553840551803  0.3061943816415127  0.27053660380700584  1.0000
  Cl  Cl13      1.0  0.5574806772198451  0.9450742153685926  0.725398743455649  1.0000
  Cl  Cl14      1.0  0.44251932205192074  0.05492578498391113  0.27460125619864656  1.0000
  Cl  Cl15      1.0  0.28344084166418554  0.9192069333779905  0.8831704944427353  1.0000
  Cl  Cl16      1.0  0.7165591576075803  0.0807930669745132  0.11682950521156023  1.0000
  Cl  Cl17      1.0  0.006158132295369911  0.7241838007993187  0.771514972958164  1.0000
  Cl  Cl18      1.0  0.9938418683321782  0.2758161995540245  0.22848502669829057  1.0000
  Cl  Cl19      1.0  0.10656937004402388  0.05895404723662662  0.7027913485174354  1.0000
  Cl  Cl20      1.0  0.8934306294518053  0.941045952027384  0.29720865178332384  1.0000
  Cl  Cl21      1.0  0.7235290025047464  0.6524561286159376  0.9312660048112678  1.0000
  Cl  Cl22      1.0  0.2764709967670194  0.3475438717365661  0.06873399484302785  1.0000
  Cl  Cl23      1.0  0.031106416999188275  0.3326793650374389  0.6817403076023135  1.0000
  Cl  Cl24      1.0  0.9688935820905736  0.6673206350866786  0.31825969270013915  1.0000
  Cl  Cl25      1.0  0.7379018425027881  0.38495174884977057  0.021008379036990644  1.0000
  Cl  Cl26      1.0  0.262098156993041  0.61504825041424  0.9789916212637685  1.0000
  Cl  Cl27      1.0  0.0411770000883983  0.18765233396850564  0.9461760733642913  1.0000
  Cl  Cl28      1.0  0.9588230005391497  0.8123476663848377  0.05382392629216327  1.0000
