data_image0
_chemical_formula_structural       H72C96N4O8Cl4
_chemical_formula_sum              "H72 C96 N4 O8 Cl4"
_cell_length_a       12.497813167419157
_cell_length_b       3.816695966296883
_cell_length_c       37.12772244112029
_cell_angle_alpha    90.0
_cell_angle_beta     95.0855127003558
_cell_angle_gamma    90.0

_space_group_name_H-M_alt    "P 1"
_space_group_IT_number       1

loop_
  _space_group_symop_operation_xyz
  'x, y, z'

loop_
  _atom_site_type_symbol
  _atom_site_label
  _atom_site_symmetry_multiplicity
  _atom_site_fract_x
  _atom_site_fract_y
  _atom_site_fract_z
  _atom_site_occupancy
  H   H1        1.0  0.25394188136665885  0.6141337981065883  0.5322426380561637  1.0000
  H   H2        1.0  0.7460581180663337  0.11413379893150116  0.9677573618706545  1.0000
  H   H3        1.0  0.7460581183867907  0.3858662028636532  0.467757361786271  1.0000
  H   H4        1.0  0.25394188176006566  0.8858662020387403  0.03224263824218445  1.0000
  H   H5        1.0  0.2696616168700833  0.24445639061610938  0.41533608260864646  1.0000
  H   H6        1.0  0.730338383276773  0.7444563897911965  0.084663917419809  1.0000
  H   H7        1.0  0.730338382956316  0.755543610354132  0.5846639175041926  1.0000
  H   H8        1.0  0.26966161647667636  0.25554360855897773  0.9153360824226255  1.0000
  H   H9        1.0  0.13875399273914973  0.984048706830596  0.3672372176186821  1.0000
  H   H10       1.0  0.8612460074077067  0.4840487050354417  0.1327627824097734  1.0000
  H   H11       1.0  0.8612460070142998  0.015951294139645477  0.6327627822237526  1.0000
  H   H12       1.0  0.13875399241869266  0.5159512933147326  0.8672372177030656  1.0000
  H   H13       1.0  0.02325607881048306  0.2629735768484126  0.48852038759699645  1.0000
  H   H14       1.0  0.9767439204634406  0.7629735760234998  0.01147961216164386  1.0000
  H   H15       1.0  0.9767439209429665  0.7370264241218288  0.5114796122454383  1.0000
  H   H16       1.0  0.023256079290008877  0.23702642232667448  0.9885203876807906  1.0000
  H   H17       1.0  0.8943721789722655  0.9885042045045432  0.44228543109279633  1.0000
  H   H18       1.0  0.1056278211745909  0.488504202709389  0.05771456893565911  1.0000
  H   H19       1.0  0.10562782158116697  0.011495796465698125  0.5577145687490492  1.0000
  H   H20       1.0  0.8943721786518085  0.5114957956407853  0.94228543117718  1.0000
  H   H21       1.0  0.5529513615905965  0.937689287174837  0.678483191503119  1.0000
  H   H22       1.0  0.4470486386423789  0.4376892879997498  0.82151680842311  1.0000
  H   H23       1.0  0.44704863816285306  0.062310713795404524  0.3215168083393157  1.0000
  H   H24       1.0  0.5529513611840203  0.5623107129704916  0.17848319168972893  1.0000
  H   H25       1.0  0.5495934741033603  0.9056430406097297  0.7304909889960849  1.0000
  H   H26       1.0  0.4504065253296321  0.40564304143464264  0.7695090109307334  1.0000
  H   H27       1.0  0.45040652565008915  0.0943569577404445  0.2695090108463498  1.0000
  H   H28       1.0  0.5495934744967672  0.5943569595355989  0.2304909891821056  1.0000
  H   H29       1.0  0.6421665907882075  0.3713847323750236  0.6183025156645399  1.0000
  H   H30       1.0  0.3578334095177177  0.8713847315501108  0.8816974845320934  1.0000
  H   H31       1.0  0.35783340903819183  0.628615268595218  0.3816974844482991  1.0000
  H   H32       1.0  0.6421665911086645  0.12861526680006355  0.11830251558015639  1.0000
  H   H33       1.0  0.9494701757560798  0.5525185339942182  0.754362150991231  1.0000
  H   H34       1.0  0.050529824476895656  0.05251853481913108  0.7456378489349982  1.0000
  H   H35       1.0  0.05052982399736975  0.44748146435595604  0.24563784885120368  1.0000
  H   H36       1.0  0.9494701761494867  0.9474814635310431  0.2543621511772518  1.0000
  H   H37       1.0  0.779028460741287  0.4878495055519352  0.6491174556844627  1.0000
  H   H38       1.0  0.22097153949168846  0.9878495047270223  0.8508825442417665  1.0000
  H   H39       1.0  0.22097153908511238  0.5121504954183063  0.35088254442837635  1.0000
  H   H40       1.0  0.7790284610617441  0.012150496243219159  0.14911745560007908  1.0000
  H   H41       1.0  0.3949214294912402  0.9011302080047497  0.6486230138132226  1.0000
  H   H42       1.0  0.6050785707417353  0.4011302088296627  0.8513769861130065  1.0000
  H   H43       1.0  0.6050785710621923  0.09886979034542444  0.3513769860286229  1.0000
  H   H44       1.0  0.3949214290846641  0.5988697921405788  0.14862301399983263  1.0000
  H   H45       1.0  0.8753591032770238  0.3002931619706719  0.8062251419122571  1.0000
  H   H46       1.0  0.1246408970289015  0.800293161145759  0.6937748582843762  1.0000
  H   H47       1.0  0.12464089654937563  0.6997068389995695  0.19377485820058185  1.0000
  H   H48       1.0  0.8753591035974808  0.19970683982448248  0.30622514182787364  1.0000
  H   H49       1.0  0.728887892298942  0.9871409861486814  0.8339148020757846  1.0000
  H   H50       1.0  0.2711121079340334  0.4871409869735943  0.6660851978504445  1.0000
  H   H51       1.0  0.2711121083274402  0.012859012201492806  0.1660851980364653  1.0000
  H   H52       1.0  0.7288878918194162  0.5128590139966471  0.3339148019919902  1.0000
  H   H53       1.0  0.5649307303685233  0.8058545210726265  0.795400385206859  1.0000
  H   H54       1.0  0.43506926986445205  0.30585452189753926  0.70459961471937  1.0000
  H   H55       1.0  0.43506926945787605  0.19414547727754783  0.20459961490598  1.0000
  H   H56       1.0  0.5649307306889804  0.6941454790727022  0.2954003851224755  1.0000
  H   H57       1.0  0.2538971405926502  0.66100498763274  0.6040190091477244  1.0000
  H   H58       1.0  0.7461028597132751  0.16100498583758566  0.895980991048909  1.0000
  H   H59       1.0  0.7461028592337492  0.3389950133375015  0.39598099096511463  1.0000
  H   H60       1.0  0.25389714011312425  0.8389950125125886  0.10401900906393  1.0000
  H   H61       1.0  0.5730715384526297  0.193350831849465  0.558240299331465  1.0000
  H   H62       1.0  0.42692846185329547  0.6933508310245521  0.9417597008651686  1.0000
  H   H63       1.0  0.4269284613737696  0.8066491691207764  0.4417597007813741  1.0000
  H   H64       1.0  0.5730715387730867  0.30664916732562214  0.0582402992470814  1.0000
  H   H65       1.0  0.9371010146010772  0.6773046983116495  0.6881881010614292  1.0000
  H   H66       1.0  0.0628989856318981  0.1773046965164951  0.8118118988647999  1.0000
  H   H67       1.0  0.06289898595235516  0.322695302658592  0.3118118987804163  1.0000
  H   H68       1.0  0.9371010141945012  0.8226953018336791  0.18818810124803914  1.0000
  H   H69       1.0  0.42418781228114805  0.9262274389201424  0.5177325002389306  1.0000
  H   H70       1.0  0.5758121871518445  0.4262274397450552  0.9822674996878877  1.0000
  H   H71       1.0  0.5758121874723016  0.07377256205009916  0.4822674996035042  1.0000
  H   H72       1.0  0.42418781267455496  0.5737725612251864  0.017732500424951333  1.0000
  C   C1        1.0  0.15430782216038796  0.27115478653232045  0.45465110961764027  1.0000
  C   C2        1.0  0.8456921779135187  0.7711547857074076  0.045348890140410866  1.0000
  C   C3        1.0  0.8456921783930446  0.7288452144379209  0.5453488902242053  1.0000
  C   C4        1.0  0.15430782183993086  0.22884521526283388  0.9546511097020237  1.0000
  C   C5        1.0  0.18670899156908946  0.19131150514680603  0.4204788662592128  1.0000
  C   C6        1.0  0.8132910085048172  0.6913115069419603  0.07952113349883834  1.0000
  C   C7        1.0  0.8132910089843431  0.8086884932033682  0.5795211335826328  1.0000
  C   C8        1.0  0.1867089912486324  0.3086884940282811  0.9204788663435962  1.0000
  C   C9        1.0  0.23305902908932977  0.4347120872742163  0.4821086612027789  1.0000
  C   C10       1.0  0.7669409710575268  0.9347120864493034  0.017891338825676655  1.0000
  C   C11       1.0  0.7669409714641028  0.5652879136960252  0.5178913386390667  1.0000
  C   C12       1.0  0.2330590287688727  0.06528791452093806  0.9821086612871625  1.0000
  C   C13       1.0  0.11468517270473524  0.04573913708127435  0.3939487484561258  1.0000
  C   C14       1.0  0.8853148274421212  0.5457391388764287  0.10605125157232964  1.0000
  C   C15       1.0  0.8853148279216471  0.9542608612688999  0.6060512516561241  1.0000
  C   C16       1.0  0.11468517231132835  0.4542608620938128  0.893948748270105  1.0000
  C   C17       1.0  0.04869197191150107  0.19980422772314724  0.4620538410396675  1.0000
  C   C18       1.0  0.9513080282353553  0.6998042268982344  0.037946158988787906  1.0000
  C   C19       1.0  0.9513080279148983  0.800195770627027  0.5379461590731714  1.0000
  C   C20       1.0  0.04869197231807717  0.3001957714519399  0.9620538408530577  1.0000
  C   C21       1.0  0.009824200821154946  0.9763199932363036  0.40209199873960194  1.0000
  C   C22       1.0  0.9901757993257015  0.47631999144114917  0.09790800128885353  1.0000
  C   C23       1.0  0.9901757990052443  0.02368000773393796  0.5979080013732371  1.0000
  C   C24       1.0  0.009824201227731009  0.523680006909025  0.9020919985529919  1.0000
  C   C25       1.0  0.9757284959838347  0.04947965509110985  0.4360101140273382  1.0000
  C   C26       1.0  0.02427150336303875  0.5494796568862642  0.06398988600170645  1.0000
  C   C27       1.0  0.02427150376961485  0.9505203432590644  0.5639898858150966  1.0000
  C   C28       1.0  0.9757284964633606  0.45052034408397723  0.9360101141111326  1.0000
  C   C29       1.0  0.703716366916404  0.17187215481469503  0.7294093215905462  1.0000
  C   C30       1.0  0.29628363331657137  0.6718721566098493  0.7705906783356831  1.0000
  C   C31       1.0  0.29628363290999526  0.8281278435354792  0.27059067852229296  1.0000
  C   C32       1.0  0.7037163664368782  0.3281278443603921  0.22940932150675167  1.0000
  C   C33       1.0  0.6075160615702422  0.12144275941625937  0.6669900679110267  1.0000
  C   C34       1.0  0.39248393866273323  0.6214427585913465  0.8330099320152025  1.0000
  C   C35       1.0  0.39248393818320737  0.8785572415539821  0.33300993193140815  1.0000
  C   C36       1.0  0.607516061963649  0.37855723975882777  0.16699006809704736  1.0000
  C   C37       1.0  0.4991819740052924  0.06063752052656891  0.6074665665872776  1.0000
  C   C38       1.0  0.5008180262276831  0.560637519701656  0.8925334333389515  1.0000
  C   C39       1.0  0.5008180257481573  0.9393624804436725  0.39253343325515716  1.0000
  C   C40       1.0  0.49918197359871624  0.43936247864851824  0.10746656677388747  1.0000
  C   C41       1.0  0.6979179210746311  0.24474206964572776  0.6912019770658878  1.0000
  C   C42       1.0  0.30208207835836126  0.7447420714408821  0.8087980228609304  1.0000
  C   C43       1.0  0.30208207867881837  0.7552579287044465  0.30879802277654683  1.0000
  C   C44       1.0  0.697917921468038  0.2552579295293594  0.1912019772519086  1.0000
  C   C45       1.0  0.7968044798218887  0.28401341358393156  0.7519957525762941  1.0000
  C   C46       1.0  0.20319552041108666  0.7840134153790859  0.7480042473499351  1.0000
  C   C47       1.0  0.20319551993156074  0.7159865847662428  0.2480042472661406  1.0000
  C   C48       1.0  0.7968044801423458  0.21598658559115558  0.25199575249191053  1.0000
  C   C49       1.0  0.6214555872939587  0.9974205264491017  0.7463749226504447  1.0000
  C   C50       1.0  0.3785444130119667  0.49742052465394726  0.7536250775461888  1.0000
  C   C51       1.0  0.3785444133324237  0.0025794745211398366  0.2536250774618053  1.0000
  C   C52       1.0  0.6214555868144327  0.5025794736962269  0.24637492256665025  1.0000
  C   C53       1.0  0.5876457005539761  0.19948104505130432  0.6314362014456776  1.0000
  C   C54       1.0  0.4123542996789992  0.6994810442263913  0.8685637984805513  1.0000
  C   C55       1.0  0.4123543000724062  0.8005189532988699  0.36856379866657224  1.0000
  C   C56       1.0  0.5876457000744502  0.3005189541237828  0.13143620136188325  1.0000
  C   C57       1.0  0.8803502447392133  0.46566077981956633  0.7366391426828919  1.0000
  C   C58       1.0  0.11964975469377935  0.9656607789946535  0.7633608572439264  1.0000
  C   C59       1.0  0.11964975508718617  0.5343392211506751  0.26336085742994714  1.0000
  C   C60       1.0  0.8803502450596702  0.034339221975588  0.2366391425985083  1.0000
  C   C61       1.0  0.7824652597908875  0.4278983980965499  0.6778503310208961  1.0000
  C   C62       1.0  0.21753473964210499  0.927898397271637  0.8221496689059221  1.0000
  C   C63       1.0  0.21753474003551188  0.5721016028736915  0.32214966909194287  1.0000
  C   C64       1.0  0.7824652601113445  0.07210160369860444  0.17785033093651262  1.0000
  C   C65       1.0  0.40622212065465435  0.91070384193385  0.6199199819759268  1.0000
  C   C66       1.0  0.5937778796512708  0.4107038427587629  0.8800800182207066  1.0000
  C   C67       1.0  0.5937778799717278  0.08929615641632417  0.3800800181363231  1.0000
  C   C68       1.0  0.4062221201751285  0.5892961582114785  0.11991998189213236  1.0000
  C   C69       1.0  0.8040655042341162  0.21283943158515958  0.7896120111608841  1.0000
  C   C70       1.0  0.1959344959988593  0.7128394307602467  0.710387988765345  1.0000
  C   C71       1.0  0.1959344963193163  0.7871605693850819  0.2103879886809614  1.0000
  C   C72       1.0  0.80406550382754  0.28716056758992753  0.28961201134749404  1.0000
  C   C73       1.0  0.7223590167081109  0.043232442787444446  0.8050413866303655  1.0000
  C   C74       1.0  0.2776409835248646  0.5432324419625316  0.6949586132958635  1.0000
  C   C75       1.0  0.27764098311828855  0.956767558182797  0.19495861348247345  1.0000
  C   C76       1.0  0.7223590170285679  0.4567675563876427  0.30504138654598206  1.0000
  C   C77       1.0  0.6298769568098714  0.9384681021567607  0.7831830927329705  1.0000
  C   C78       1.0  0.370123042623121  0.4384681029816736  0.7168169071938478  1.0000
  C   C79       1.0  0.37012304294357806  0.061531898813480757  0.21681690710946425  1.0000
  C   C80       1.0  0.6298769572032784  0.5615318979885678  0.28318309291899124  1.0000
  C   C81       1.0  0.32690357729381714  0.7777174305240715  0.5952312556862005  1.0000
  C   C82       1.0  0.6730964229391583  0.2777174313489843  0.9047687442400286  1.0000
  C   C83       1.0  0.6730964224596324  0.2222825678261028  0.40476874415623415  1.0000
  C   C84       1.0  0.32690357688724103  0.7222825696212571  0.09523125587281042  1.0000
  C   C85       1.0  0.5047399863203421  0.07310242745656967  0.5698078380217901  1.0000
  C   C86       1.0  0.4952600131126503  0.573102429251724  0.930192161905028  1.0000
  C   C87       1.0  0.4952600134331074  0.9268975708936046  0.4301921618206445  1.0000
  C   C88       1.0  0.504739986713749  0.42689757171851744  0.06980783820781095  1.0000
  C   C89       1.0  0.873138246810595  0.5359047663376022  0.7000738276768229  1.0000
  C   C90       1.0  0.12686175342238032  0.035904767162515054  0.7999261722494061  1.0000
  C   C91       1.0  0.12686175294285446  0.46409523463263924  0.29992617216561174  1.0000
  C   C92       1.0  0.873138247204002  0.9640952338077264  0.20007382786284375  1.0000
  C   C93       1.0  0.42203372849922294  0.9296995520035582  0.5469909439303094  1.0000
  C   C94       1.0  0.5779662717337525  0.42969955282847105  0.9530090559959197  1.0000
  C   C95       1.0  0.5779662713271764  0.07030044896668329  0.4530090561825295  1.0000
  C   C96       1.0  0.42203372881968  0.5703004481417705  0.046990943845925934  1.0000
  N   N1        1.0  0.334516983374591  0.7838139732420328  0.5593126461392948  1.0000
  N   N2        1.0  0.6654830160584015  0.28381397406694575  0.9406873537875236  1.0000
  N   N3        1.0  0.6654830163788585  0.2161860251081414  0.44068735370313994  1.0000
  N   N4        1.0  0.3345169837679979  0.7161860269032957  0.05931264632531557  1.0000
  O   O1        1.0  0.1943778731902188  0.4910176986977288  0.5137244556468904  1.0000
  O   O2        1.0  0.8056221271157065  0.9910177004928832  0.986275544549743  1.0000
  O   O3        1.0  0.8056221274361635  0.5089822996524455  0.48627554446535953  1.0000
  O   O4        1.0  0.19437787271069293  0.008982300477358303  0.013724455563095986  1.0000
  O   O5        1.0  0.325520825755525  0.5100172890869936  0.47534271028789127  1.0000
  O   O6        1.0  0.6744791743913315  0.0100172899119065  0.024657289740564223  1.0000
  O   O7        1.0  0.6744791748708574  0.4899827092631806  0.5246572898243587  1.0000
  O   O8        1.0  0.3255208254350679  0.9899827110583349  0.9753427103722748  1.0000
  Cl  Cl1       1.0  0.9200227966924235  0.7968797218477265  0.36870546562572093  1.0000
  Cl  Cl2       1.0  0.07997720338148306  0.29687972267263935  0.13129453413233022  1.0000
  Cl  Cl3       1.0  0.079977203061026  0.20312027650244777  0.6312945342167138  1.0000
  Cl  Cl4       1.0  0.9200227963719664  0.703120278297602  0.8687054657101044  1.0000
