data_image0
_chemical_formula_structural       H72C96N4O8Br4
_chemical_formula_sum              "H72 C96 N4 O8 Br4"
_cell_length_a       12.402852495875207
_cell_length_b       3.871858593917109
_cell_length_c       37.42690195939959
_cell_angle_alpha    90.0
_cell_angle_beta     94.4072791341357
_cell_angle_gamma    90.0

_space_group_name_H-M_alt    "P 1"
_space_group_IT_number       1

loop_
  _space_group_symop_operation_xyz
  'x, y, z'

loop_
  _atom_site_type_symbol
  _atom_site_label
  _atom_site_symmetry_multiplicity
  _atom_site_fract_x
  _atom_site_fract_y
  _atom_site_fract_z
  _atom_site_occupancy
  H   H1        1.0  0.744861276512712  0.37666999572020593  0.4661165827737842  1.0000
  H   H2        1.0  0.25513872393490145  0.876669996505732  0.03388341721550476  1.0000
  H   H3        1.0  0.2551387240712619  0.6233300032681071  0.5338834172619923  1.0000
  H   H4        1.0  0.7448612757789562  0.1233300024825811  0.9661165825529084  1.0000
  H   H5        1.0  0.7184710426545189  0.7504008448460919  0.5811720210624974  1.0000
  H   H6        1.0  0.2815289571956993  0.2504008440605659  0.9188279787524036  1.0000
  H   H7        1.0  0.2815289578654599  0.24959915672496008  0.41882797870529986  1.0000
  H   H8        1.0  0.7184710425821534  0.749599157510486  0.08117202128398898  1.0000
  H   H9        1.0  0.8452845934604591  0.01340642193946592  0.6294277670370052  1.0000
  H   H10       1.0  0.15471540645375423  0.5134064227249919  0.8705722330458749  1.0000
  H   H11       1.0  0.1547154063173937  0.9865935770488471  0.37057223299938724  1.0000
  H   H12       1.0  0.8452845933240986  0.4865935762633211  0.12942776699051772  1.0000
  H   H13       1.0  0.09927738950056024  0.008254214151882893  0.556688850238675  1.0000
  H   H14       1.0  0.9007226104136531  0.5082542149374089  0.9433111498442049  1.0000
  H   H15       1.0  0.9007226102772925  0.9917457848364302  0.4433111497977176  1.0000
  H   H16       1.0  0.09927739017032088  0.49174578405090413  0.056688850191571404  1.0000
  H   H17       1.0  0.9738003813808263  0.7337625925862576  0.5102901287106872  1.0000
  H   H18       1.0  0.02619961853338697  0.2337625943834706  0.9897098713721928  1.0000
  H   H19       1.0  0.026199618397026437  0.2662374064020554  0.48970987132570515  1.0000
  H   H20       1.0  0.9738003820505868  0.7662374071875814  0.010290128663583724  1.0000
  H   H21       1.0  0.5759025854327467  0.04931850049999219  0.4806835933149526  1.0000
  H   H22       1.0  0.42409741501486664  0.5493185012855182  0.019316406674336307  1.0000
  H   H23       1.0  0.42409741515122723  0.9506814984883208  0.5193164067208239  1.0000
  H   H24       1.0  0.5759025847629861  0.4506815002855338  0.9806835933620561  1.0000
  H   H25       1.0  0.42837153890526264  0.7827664715755589  0.4406676856793451  1.0000
  H   H26       1.0  0.5716284615423508  0.28276647079003286  0.059332314309943776  1.0000
  H   H27       1.0  0.5716284608725901  0.21723352999549309  0.5593323143570473  1.0000
  H   H28       1.0  0.4283715390416232  0.7172335281982801  0.9406676857258327  1.0000
  H   H29       1.0  0.6051869188606713  0.10383963160009127  0.3507197413990373  1.0000
  H   H30       1.0  0.39481308084481603  0.6038396323856172  0.14928025885884685  1.0000
  H   H31       1.0  0.39481308091718154  0.8961603673882218  0.6492802586373553  1.0000
  H   H32       1.0  0.6051869189330367  0.39616036660269577  0.8507197411775457  1.0000
  H   H33       1.0  0.7456574835045615  0.34268085670393295  0.39495331840166514  1.0000
  H   H34       1.0  0.25434251694305193  0.8426808574894589  0.10504668158762376  1.0000
  H   H35       1.0  0.2543425162732913  0.65731914228438  0.6050466816347273  1.0000
  H   H36       1.0  0.745657483640922  0.15731914149885412  0.8949533184481527  1.0000
  H   H37       1.0  0.3606336088272169  0.6108215609205256  0.3806209048253582  1.0000
  H   H38       1.0  0.6393663908142754  0.11082156013499964  0.11937909516454674  1.0000
  H   H39       1.0  0.6393663908866408  0.3891784380677874  0.619379094943055  1.0000
  H   H40       1.0  0.3606336089635773  0.8891784388533134  0.8806209048718457  1.0000
  H   H41       1.0  0.445136319923244  0.06699742867870694  0.32177071535266444  1.0000
  H   H42       1.0  0.5548636797182483  0.5669974294642328  0.17822928463724047  1.0000
  H   H43       1.0  0.5548636798546088  0.9330025703096061  0.678229284683728  1.0000
  H   H44       1.0  0.4451363200596045  0.4330025695240801  0.821770715399152  1.0000
  H   H45       1.0  0.22074440193732792  0.5067007620273647  0.35095981194069825  1.0000
  H   H46       1.0  0.7792555985102854  0.006700763824577689  0.1490401880485907  1.0000
  H   H47       1.0  0.7792555985826509  0.4932992369609483  0.649040187827099  1.0000
  H   H48       1.0  0.22074440126756725  0.9932992377464742  0.8509598119878018  1.0000
  H   H49       1.0  0.06410790167496554  0.3082728025954228  0.31247711125103195  1.0000
  H   H50       1.0  0.9358920979665267  0.8082728033809488  0.187522888738873  1.0000
  H   H51       1.0  0.9358920981028872  0.6917271963928903  0.6875228887853605  1.0000
  H   H52       1.0  0.06410790181132604  0.1917271956073643  0.8124771112975194  1.0000
  H   H53       1.0  0.05157046657139759  0.4351514496544318  0.24685474296335144  1.0000
  H   H54       1.0  0.9484295330700946  0.9351514504399578  0.2531452570265535  1.0000
  H   H55       1.0  0.9484295332064552  0.5648485493338812  0.753145257073041  1.0000
  H   H56       1.0  0.051570466707758125  0.06484855113109415  0.746854743009839  1.0000
  H   H57       1.0  0.1253930394339512  0.6924922269145767  0.19540709815474186  1.0000
  H   H58       1.0  0.8746069610136622  0.1924922261290506  0.3045929018345471  1.0000
  H   H59       1.0  0.8746069603439016  0.3075077720737365  0.8045929018816507  1.0000
  H   H60       1.0  0.12539303957031173  0.8075077728592625  0.6954070982012294  1.0000
  H   H61       1.0  0.27211184122553744  0.00963899096383141  0.1676974328419761  1.0000
  H   H62       1.0  0.7278881584159548  0.5096389917493573  0.33230256714792883  1.0000
  H   H63       1.0  0.7278881585523154  0.9903610080244816  0.8323025671944164  1.0000
  H   H64       1.0  0.272111841361898  0.49036100723895565  0.6676974328884637  1.0000
  H   H65       1.0  0.43506757398050583  0.19914783334582378  0.20568501090186977  1.0000
  H   H66       1.0  0.5649324256609863  0.6991478315486108  0.29431498908803516  1.0000
  H   H67       1.0  0.5649324257973469  0.8008521682252282  0.7943149891345227  1.0000
  H   H68       1.0  0.4350675740528713  0.30085216743970217  0.7056850106803781  1.0000
  H   H69       1.0  0.44998629575034116  0.09771850154714096  0.26999165247124446  1.0000
  H   H70       1.0  0.5500137046972723  0.597718502332667  0.23000834751804447  1.0000
  H   H71       1.0  0.5500137048336328  0.902281500023911  0.730008347564532  1.0000
  H   H72       1.0  0.44998629588670164  0.402281499238385  0.769991652517732  1.0000
  C   C1        1.0  0.7621007802082387  0.5571171280348107  0.5156417996405113  1.0000
  C   C2        1.0  0.23789921964197966  0.05711712724928469  0.9843582001743896  1.0000
  C   C3        1.0  0.23789921956961424  0.44288287095350237  0.48435820039588123  1.0000
  C   C4        1.0  0.7621007800718781  0.9428828717390283  0.015641799594023707  1.0000
  C   C5        1.0  0.838797477823175  0.7238118495347089  0.5430921703124922  1.0000
  C   C6        1.0  0.16120252283316425  0.22381184874918292  0.9569078295017924  1.0000
  C   C7        1.0  0.1612025227607988  0.27618814945360415  0.45690782972328425  1.0000
  C   C8        1.0  0.8387974777508097  0.7761881502391301  0.043092170533983884  1.0000
  C   C9        1.0  0.8025532794141125  0.8044659701398906  0.5766086817344002  1.0000
  C   C10       1.0  0.19744672043610584  0.3044659693543647  0.9233913180805008  1.0000
  C   C11       1.0  0.19744672029974525  0.19553402884842236  0.4233913180340131  1.0000
  C   C12       1.0  0.8025532793417469  0.6955340296339484  0.07660868195589184  1.0000
  C   C13       1.0  0.872388470050166  0.951844882917462  0.603218504179866  1.0000
  C   C14       1.0  0.1276115298640474  0.4518448821319361  0.8967814959030139  1.0000
  C   C15       1.0  0.12761152972768688  0.048155118653589866  0.3967814958565264  1.0000
  C   C16       1.0  0.8723884699138054  0.5481551168563769  0.10321850413337848  1.0000
  C   C17       1.0  0.978753537448387  0.020742901129234628  0.5957021789849772  1.0000
  C   C18       1.0  0.021246462465826375  0.5207429019147606  0.9042978210979028  1.0000
  C   C19       1.0  0.02124646232946587  0.9792570978590784  0.40429782105141526  1.0000
  C   C20       1.0  0.9787535373120263  0.4792570970735524  0.09570217893848969  1.0000
  C   C21       1.0  0.016741949011534252  0.9480085238047259  0.5624665527808637  1.0000
  C   C22       1.0  0.983258050838684  0.4480085256019389  0.9375334470340372  1.0000
  C   C23       1.0  0.9832580507023234  0.05199147518358715  0.4375334469875496  1.0000
  C   C24       1.0  0.016741948939168787  0.5519914759691131  0.06246655300235528  1.0000
  C   C25       1.0  0.9458123909681834  0.7968031412218584  0.5363108436342179  1.0000
  C   C26       1.0  0.05418760888203497  0.2968031404363324  0.9636891561806831  1.0000
  C   C27       1.0  0.05418760880966947  0.20319685776645469  0.46368915640217456  1.0000
  C   C28       1.0  0.9458123908318227  0.7031968585519807  0.03631084358773028  1.0000
  C   C29       1.0  0.5782984422154863  0.05221518170049373  0.4516315260691497  1.0000
  C   C30       1.0  0.421701558232127  0.5522151799032807  0.04836847392013922  1.0000
  C   C31       1.0  0.4217015583044925  0.9477848198705582  0.5483684736986476  1.0000
  C   C32       1.0  0.5782984423518469  0.44778481908503226  0.9516315261156374  1.0000
  C   C33       1.0  0.49610959857259956  0.908764988351568  0.42900868854178653  1.0000
  C   C34       1.0  0.5038904010688927  0.408764987566042  0.0709913114481185  1.0000
  C   C35       1.0  0.5038904012052532  0.09123501321948396  0.5709913114946061  1.0000
  C   C36       1.0  0.49610959870896004  0.59123501400501  0.9290086885882739  1.0000
  C   C37       1.0  0.5016166288299477  0.9297597091111817  0.391654247835385  1.0000
  C   C38       1.0  0.4983833708115445  0.4297597083256557  0.10834575215451996  1.0000
  C   C39       1.0  0.498383370947905  0.07024029245987032  0.6083457522010075  1.0000
  C   C40       1.0  0.5016166289663082  0.5702402906626574  0.8916542478818725  1.0000
  C   C41       1.0  0.5940499888443354  0.08753323288522342  0.37923398766441  1.0000
  C   C42       1.0  0.40595001079715687  0.5875332336707494  0.1207660123254949  1.0000
  C   C43       1.0  0.4059500109335174  0.9124667661030895  0.6207660123719824  1.0000
  C   C44       1.0  0.5940499889806957  0.41246676790030257  0.8792339877108977  1.0000
  C   C45       1.0  0.672983579445753  0.21966850270209237  0.40369784940603504  1.0000
  C   C46       1.0  0.3270164210018605  0.7196685009048794  0.09630215058325388  1.0000
  C   C47       1.0  0.32701642113822094  0.7803314988689596  0.5963021506297415  1.0000
  C   C48       1.0  0.6729835787759924  0.28033149808343366  0.9036978494531386  1.0000
  C   C49       1.0  0.41357779039319587  0.7908054531770305  0.36790351426454615  1.0000
  C   C50       1.0  0.5864222092482964  0.2908054523915047  0.1320964857253588  1.0000
  C   C51       1.0  0.5864222093846568  0.20919454581128236  0.6320964857718463  1.0000
  C   C52       1.0  0.41357779046556137  0.7091945465968084  0.8679035140430545  1.0000
  C   C53       1.0  0.3922864045858812  0.8766307052980833  0.3329725654595679  1.0000
  C   C54       1.0  0.6077135950556111  0.3766307045125572  0.16702743453033703  1.0000
  C   C55       1.0  0.6077135951919717  0.12336929369022981  0.6670274345768247  1.0000
  C   C56       1.0  0.39228640472224174  0.6233692944757558  0.8329725655060555  1.0000
  C   C57       1.0  0.30209287677271257  0.7518349054826873  0.3091076661877568  1.0000
  C   C58       1.0  0.6979071237388959  0.25183490727990027  0.19089233406951128  1.0000
  C   C59       1.0  0.6979071238112613  0.24816509350562577  0.6908923338480196  1.0000
  C   C60       1.0  0.30209287684507796  0.7481650942911517  0.8091076659662652  1.0000
  C   C61       1.0  0.21769085493506982  0.5658383375472268  0.32247210354755956  1.0000
  C   C62       1.0  0.7823091447064224  0.06583833676170081  0.17752789644234537  1.0000
  C   C63       1.0  0.7823091448427829  0.43416166402382517  0.6775278964888328  1.0000
  C   C64       1.0  0.2176908550714303  0.9341616622266121  0.8224721035940471  1.0000
  C   C65       1.0  0.12750885870428982  0.4537063628201315  0.3005446138232474  1.0000
  C   C66       1.0  0.8724911417433235  0.9537063636056574  0.19945538616604153  1.0000
  C   C67       1.0  0.872491141073563  0.5462936361681815  0.6994553862131451  1.0000
  C   C68       1.0  0.12750885877665524  0.04629363538265554  0.8005446136017557  1.0000
  C   C69       1.0  0.12029346764441182  0.525185848262808  0.2643386882657903  1.0000
  C   C70       1.0  0.8797065328032015  0.025185847477282038  0.23566131172349855  1.0000
  C   C71       1.0  0.8797065329395621  0.47481415330824395  0.7356613117699861  1.0000
  C   C72       1.0  0.12029346691065611  0.9748141540937699  0.7643386880449147  1.0000
  C   C73       1.0  0.2035548537166181  0.7112636459209898  0.24902977297327328  1.0000
  C   C74       1.0  0.7964451459248741  0.21126364771820277  0.25097022701663163  1.0000
  C   C75       1.0  0.7964451460612347  0.28873635306732326  0.7509702270631192  1.0000
  C   C76       1.0  0.20355485385297864  0.7887363538528491  0.7490297730197608  1.0000
  C   C77       1.0  0.1964655364536563  0.7825199543082445  0.21176009039167992  1.0000
  C   C78       1.0  0.803534463187836  0.2825199561054575  0.28823990959822504  1.0000
  C   C79       1.0  0.8035344633241965  0.21748004468006848  0.7882399096447126  1.0000
  C   C80       1.0  0.19646553659001684  0.7174800454655945  0.7117600904381675  1.0000
  C   C81       1.0  0.27820521067822956  0.9547825909261869  0.19634545209986093  1.0000
  C   C82       1.0  0.7217947897693839  0.45478259014066086  0.30365454788942803  1.0000
  C   C83       1.0  0.7217947899057443  0.045217410644865126  0.8036545479359155  1.0000
  C   C84       1.0  0.27820521081459004  0.5452174088476521  0.6963454521463485  1.0000
  C   C85       1.0  0.37028961811492106  0.06340130561215826  0.21789688312550026  1.0000
  C   C86       1.0  0.6297103823326924  0.5634013063976842  0.28210311686378864  1.0000
  C   C87       1.0  0.6297103824690529  0.9365986959588937  0.7821031169102761  1.0000
  C   C88       1.0  0.3702896174451604  0.4365986951733677  0.7178968831726038  1.0000
  C   C89       1.0  0.3784601517379075  0.00371775457466724  0.25435444064619905  1.0000
  C   C90       1.0  0.6215398487097059  0.5037177527774543  0.2456455593430899  1.0000
  C   C91       1.0  0.6215398488460664  0.9962822469963847  0.7456455593895774  1.0000
  C   C92       1.0  0.37846015106814684  0.49628224621085876  0.7543544406933026  1.0000
  C   C93       1.0  0.2963548309460687  0.8258563251828448  0.27126775794060376  1.0000
  C   C94       1.0  0.7036451695015448  0.32585632439731876  0.2287322420486851  1.0000
  C   C95       1.0  0.7036451688317841  0.1741436763882072  0.7287322420957887  1.0000
  C   C96       1.0  0.2963548310824292  0.6741436745909943  0.7712677579870914  1.0000
  N   N1        1.0  0.6653120723217689  0.20574508874149613  0.43934240165340843  1.0000
  N   N2        1.0  0.33468792731972324  0.7057450895270222  0.060657598336496504  1.0000
  N   N3        1.0  0.3346879274560838  0.7942549128295558  0.560657598382984  1.0000
  N   N4        1.0  0.6653120724581295  0.29425491204402987  0.939342401699896  1.0000
  O   O1        1.0  0.803622035551867  0.5006059862426617  0.4845495293882498  1.0000
  O   O2        1.0  0.19637796408962535  0.000605985457135791  0.015450470601655126  1.0000
  O   O3        1.0  0.19637796422598588  0.49939401274565126  0.5154504706481426  1.0000
  O   O4        1.0  0.8036220356882275  0.9993940135311772  0.9845495294347375  1.0000
  O   O5        1.0  0.6686631120635904  0.47935158399530486  0.5219910215586709  1.0000
  O   O6        1.0  0.33133688785062293  0.9793515847808308  0.9780089785242092  1.0000
  O   O7        1.0  0.33133688852038357  0.5206484149930082  0.47800897847710566  1.0000
  O   O8        1.0  0.6686631119272298  0.020648414207482178  0.021991021512183295  1.0000
  Br  Br1       1.0  0.07475091756391408  0.2142161548211119  0.6325776780122296  1.0000
  Br  Br2       1.0  0.9252490823502992  0.7142161556066379  0.8674223220706504  1.0000
  Br  Br3       1.0  0.9252490830200599  0.7857838441672012  0.36742232202354685  1.0000
  Br  Br4       1.0  0.07475091742755356  0.28578384596441414  0.13257767796574205  1.0000
