data_image0
_chemical_formula_structural       H42C38N8O12Cl2
_chemical_formula_sum              "H42 C38 N8 O12 Cl2"
_cell_length_a       6.9718006704739945
_cell_length_b       12.20050825434027
_cell_length_c       12.345097351845492
_cell_angle_alpha    103.8340918052576
_cell_angle_beta     97.72542305879674
_cell_angle_gamma    93.62477763849226

_space_group_name_H-M_alt    "P 1"
_space_group_IT_number       1

loop_
  _space_group_symop_operation_xyz
  'x, y, z'

loop_
  _atom_site_type_symbol
  _atom_site_label
  _atom_site_symmetry_multiplicity
  _atom_site_fract_x
  _atom_site_fract_y
  _atom_site_fract_z
  _atom_site_occupancy
  H   H1        1.0  0.11636402904208684  0.3120389172075446  0.39430794406363484  1.0000
  H   H2        1.0  0.8836359703928187  0.6879610831930261  0.6056920556509168  1.0000
  H   H3        1.0  0.2508505106467889  0.44391592811672664  0.28858978511813105  1.0000
  H   H4        1.0  0.7491494886979341  0.5560840714614906  0.7114102145921121  1.0000
  H   H5        1.0  0.7188332941661664  0.6076860996274809  0.30662240475664354  1.0000
  H   H6        1.0  0.28116670549325185  0.3923139009812934  0.6933775958022491  1.0000
  H   H7        1.0  0.6099514316972546  0.47106545556956947  0.4109711961134206  1.0000
  H   H8        1.0  0.39004856939655125  0.5289345450401792  0.5890288044451839  1.0000
  H   H9        1.0  0.08520752476108778  0.9053462910727711  0.03078610488612161  1.0000
  H   H10       1.0  0.9147924748983305  0.09465370953600297  0.9692138956727709  1.0000
  H   H11       1.0  0.8375305148379513  0.9047773331351111  0.96947909731428  1.0000
  H   H12       1.0  0.16246948616567206  0.09522266665228409  0.03052090324001614  1.0000
  H   H13       1.0  0.9921496740033485  0.8181701267219802  0.8931446289214188  1.0000
  H   H14       1.0  0.007850325431556964  0.1818298736785906  0.10685537079313284  1.0000
  H   H15       1.0  0.7420175598340437  0.593035568967445  0.9645650552450256  1.0000
  H   H16       1.0  0.25798244094506684  0.4069644306117468  0.035434944464929424  1.0000
  H   H17       1.0  0.6853143472526606  0.6925501693381827  0.8840811814609514  1.0000
  H   H18       1.0  0.314685652182245  0.3074498310623881  0.11591881825360018  1.0000
  H   H19       1.0  0.38790067492635477  0.5424186552763602  0.9212358104377946  1.0000
  H   H20       1.0  0.6120993246428807  0.45758134451006055  0.0787641901167895  1.0000
  H   H21       1.0  0.330911510975694  0.6619136482867253  0.8672519634098598  1.0000
  H   H22       1.0  0.6690884883690288  0.3380863512914921  0.13274803630038345  1.0000
  H   H23       1.0  0.2270020609654604  0.63813468567728  0.9845662444819194  1.0000
  H   H24       1.0  0.772997938469445  0.3618653147232907  0.0154337552326322  1.0000
  H   H25       1.0  0.3667448969882256  0.8409479388985347  0.09252273103932157  1.0000
  H   H26       1.0  0.6332551023564973  0.1590520606796826  0.9074772686709214  1.0000
  H   H27       1.0  0.4741290618621431  0.8590666182823681  0.973689425476312  1.0000
  H   H28       1.0  0.5258709392316627  0.14093338232738062  0.02631057508229256  1.0000
  H   H29       1.0  0.6213946659892674  0.8804116488198659  0.10879234142841125  1.0000
  H   H30       1.0  0.3786053347898432  0.11958835075932588  0.8912076582815438  1.0000
  H   H31       1.0  0.7996415017257928  0.648524912220292  0.16317985715953667  1.0000
  H   H32       1.0  0.20035849761893007  0.3514750873579254  0.8368201425507065  1.0000
  H   H33       1.0  0.43716884358366986  0.6609826401353814  0.15881144878859008  1.0000
  H   H34       1.0  0.5628311571954406  0.3390173594438105  0.841188550921365  1.0000
  H   H35       1.0  0.15015024131777777  0.990365429995454  0.6494336191165597  1.0000
  H   H36       1.0  0.8498497580269451  0.009634569582763243  0.35056638059368334  1.0000
  H   H37       1.0  0.7672922328244046  0.9762402890654076  0.728529467973143  1.0000
  H   H38       1.0  0.23270776661050088  0.023759711335163074  0.27147053174140867  1.0000
  H   H39       1.0  0.8259784093189241  0.13435657603457438  0.6379134544110253  1.0000
  H   H40       1.0  0.17402159002579878  0.865643423543643  0.36208654529921785  1.0000
  H   H41       1.0  0.7840996955159348  0.3083259585771508  0.4615585946937605  1.0000
  H   H42       1.0  0.2159003053533583  0.6916740418243945  0.5384414050205031  1.0000
  C   C1        1.0  0.0324348556693564  0.377385931061428  0.3706717723856389  1.0000
  C   C2        1.0  0.9675651438998792  0.6226140687249929  0.6293282281689453  1.0000
  C   C3        1.0  0.10642008435609043  0.4502302280101777  0.31225715146682453  1.0000
  C   C4        1.0  0.89357991642302  0.5497697715690142  0.6877428482431304  1.0000
  C   C5        1.0  0.9938068484859764  0.5338213314112661  0.28527200807693986  1.0000
  C   C6        1.0  0.006193150948929029  0.46617866898930466  0.7147279916376117  1.0000
  C   C7        1.0  0.8115782487366525  0.5424299886198836  0.3205631926480403  1.0000
  C   C8        1.0  0.18842175060807037  0.4575700109583337  0.6794368070622028  1.0000
  C   C9        1.0  0.7487156323494679  0.46667932606038637  0.37955594681293486  1.0000
  C   C10       1.0  0.2512843669952548  0.533320673517831  0.6204440528973083  1.0000
  C   C11       1.0  0.07923174976979426  0.6110748000185394  0.2226206786710471  1.0000
  C   C12       1.0  0.9207682510994989  0.3889252003830058  0.7773793210432164  1.0000
  C   C13       1.0  0.8980933136401991  0.7579900649667802  0.0288470283699849  1.0000
  C   C14       1.0  0.10190668745360684  0.24200993564296838  0.9711529721886195  1.0000
  C   C15       1.0  0.9580217183881126  0.8521611050546405  0.9786408444884657  1.0000
  C   C16       1.0  0.04197828261551069  0.14783889473275488  0.021359156065830394  1.0000
  C   C17       1.0  0.7164057577755625  0.6822222306474719  0.9703593151476325  1.0000
  C   C18       1.0  0.2835942415691604  0.31777776893074544  0.029640684562610715  1.0000
  C   C19       1.0  0.5304241027450838  0.7039990035728548  0.02433932672759751  1.0000
  C   C20       1.0  0.4695758968241518  0.2960009962135659  0.9756606738269866  1.0000
  C   C21       1.0  0.3582783207520408  0.6316760919872181  0.9442567310277598  1.0000
  C   C22       1.0  0.6417216800270698  0.3683239075919737  0.05574326868219517  1.0000
  C   C23       1.0  0.4964579635538571  0.8293716773950355  0.051239164433333165  1.0000
  C   C24       1.0  0.5035420360153785  0.1706283223913853  0.948760836121251  1.0000
  C   C25       1.0  0.5242082495022804  0.15262291559634392  0.5918439071439751  1.0000
  C   C26       1.0  0.47579174984244255  0.8473770839818735  0.40815609256626806  1.0000
  C   C27       1.0  0.33289692452071223  0.11124224585967787  0.5966058597745034  1.0000
  C   C28       1.0  0.6671030749141933  0.888757754540893  0.4033941399400482  1.0000
  C   C29       1.0  0.29784944733170665  0.023546321594683974  0.6481051235797015  1.0000
  C   C30       1.0  0.7021505535375865  0.9764536788068613  0.35189487613456194  1.0000
  C   C31       1.0  0.45525763185122087  0.9761579171446906  0.6942602995126788  1.0000
  C   C32       1.0  0.5447423675836847  0.023842083255880272  0.30573970020187285  1.0000
  C   C33       1.0  0.646696514462268  0.014350125942717127  0.6914599540662731  1.0000
  C   C34       1.0  0.3533034851069678  0.9856498738437036  0.3085400464883111  1.0000
  C   C35       1.0  0.6780588992021981  0.10264993528359845  0.6408320019331979  1.0000
  C   C36       1.0  0.32194110036703744  0.8973500645028223  0.35916799862138615  1.0000
  C   C37       1.0  0.5720586023435607  0.24637865656366473  0.5361973123461895  1.0000
  C   C38       1.0  0.4279413970011623  0.7536213430145526  0.4638026873640537  1.0000
  N   N1        1.0  0.8563273219545531  0.3856392095088294  0.40317351397430184  1.0000
  N   N2        1.0  0.143672677704865  0.6143607910999448  0.5968264865845907  1.0000
  N   N3        1.0  0.949497175248378  0.6624550597877572  0.1652920295944049  1.0000
  N   N4        1.0  0.050502824320857585  0.3375449399986635  0.8347079709601792  1.0000
  N   N5        1.0  0.012913106723074623  0.7459124792890411  0.11606752745135931  1.0000
  N   N6        1.0  0.987086892846161  0.25408752049737965  0.8839324731032248  1.0000
  N   N7        1.0  0.4165493580457554  0.8835405946169088  0.7475366026102945  1.0000
  N   N8        1.0  0.5834506412989675  0.11645940496130854  0.25246339709994864  1.0000
  O   O1        1.0  0.2588671059534114  0.6221073458639849  0.22393687524503617  1.0000
  O   O2        1.0  0.7411328936158242  0.3778926539224359  0.7760631253095481  1.0000
  O   O3        1.0  0.5615359587224724  0.6678178179205315  0.12819046060909925  1.0000
  O   O4        1.0  0.4384640420566381  0.3321821816586603  0.8718095391008557  1.0000
  O   O5        1.0  0.7442718961024165  0.2405515207044379  0.5031606285916376  1.0000
  O   O6        1.0  0.2557281047668765  0.7594484796971074  0.4968393711226259  1.0000
  O   O7        1.0  0.46100648492729446  0.3185879108781278  0.5231483806929191  1.0000
  O   O8        1.0  0.538993514507611  0.6814120895224429  0.4768516190216324  1.0000
  O   O9        1.0  0.5525366638441298  0.8264624630954971  0.7673995682561358  1.0000
  O   O10       1.0  0.44746333550059303  0.17353753648272036  0.23260043145410736  1.0000
  O   O11       1.0  0.25068302407910564  0.867392885376221  0.7707081587399467  1.0000
  O   O12       1.0  0.7493169755803126  0.13260711523255322  0.2292918418189458  1.0000
  Cl  Cl1       1.0  0.1291785336925034  0.16097424723628287  0.5365140221627402  1.0000
  Cl  Cl2       1.0  0.8708214658767321  0.8390257525501379  0.46348597839184386  1.0000
