data_image0
_chemical_formula_structural       H48C92N16F24S8I12
_chemical_formula_sum              "H48 C92 N16 F24 S8 I12"
_cell_length_a       8.419486310224631
_cell_length_b       17.59789852090158
_cell_length_c       18.682541245165424
_cell_angle_alpha    107.43417764249585
_cell_angle_beta     93.32119059468775
_cell_angle_gamma    92.11418189373919

_space_group_name_H-M_alt    "P 1"
_space_group_IT_number       1

loop_
  _space_group_symop_operation_xyz
  'x, y, z'

loop_
  _atom_site_type_symbol
  _atom_site_label
  _atom_site_symmetry_multiplicity
  _atom_site_fract_x
  _atom_site_fract_y
  _atom_site_fract_z
  _atom_site_occupancy
  H   H1        1.0  0.5094930501456956  0.9281345493625951  0.17644738574875846  1.0000
  H   H2        1.0  0.49050695033990965  0.07186545059065277  0.8235526141486866  1.0000
  H   H3        1.0  0.018942028745059167  0.9306990526703567  0.1754934647558733  1.0000
  H   H4        1.0  0.9810579717405462  0.06930094728289123  0.8245065351415718  1.0000
  H   H5        1.0  0.559280697911926  0.8058081193048539  0.24941982790033623  1.0000
  H   H6        1.0  0.44071930138583776  0.19419188064782422  0.7505801719965055  1.0000
  H   H7        1.0  0.4021906158817086  0.7134507233251649  0.3003261854700245  1.0000
  H   H8        1.0  0.5978093846038965  0.2865492766280828  0.6996738144274205  1.0000
  H   H9        1.0  0.10887542741816977  0.7150829832661517  0.29989023468559256  1.0000
  H   H10       1.0  0.8911245731521948  0.2849170168650232  0.700109765774353  1.0000
  H   H11       1.0  0.9599567405150693  0.8087077955387388  0.24768317255447  1.0000
  H   H12       1.0  0.040043258782694525  0.19129220441393935  0.7523168273423717  1.0000
  H   H13       1.0  0.008549504254937694  0.03121698579073647  0.09420594473796542  1.0000
  H   H14       1.0  0.9914504962306675  0.9687830141625114  0.9057940551594795  1.0000
  H   H15       1.0  0.5161123667179381  0.023660478684017966  0.08833874044220942  1.0000
  H   H16       1.0  0.48388763376766714  0.9763395212692301  0.9116612594552356  1.0000
  H   H17       1.0  0.058791674427945854  0.1599932587779484  0.02895028581718786  1.0000
  H   H18       1.0  0.9412083260576594  0.8400067411752995  0.9710497140802572  1.0000
  H   H19       1.0  0.9016320455669699  0.2515345487490891  0.976946065184552  1.0000
  H   H20       1.0  0.09836795500339489  0.7484654513820859  0.023053935275393594  1.0000
  H   H21       1.0  0.6079827982778563  0.2413414650213785  0.9674453364626086  1.0000
  H   H22       1.0  0.39201720110466703  0.7586585351092268  0.0325546639967338  1.0000
  H   H23       1.0  0.45726189854099386  0.14139231229115753  0.011415186710186202  1.0000
  H   H24       1.0  0.5427381019446114  0.8586076876620902  0.9885848131872587  1.0000
  H   H25       1.0  0.45042869666470053  0.996996690061878  0.6515683151099454  1.0000
  H   H26       1.0  0.5495713026330633  0.0030033098908001437  0.34843168478689635  1.0000
  H   H27       1.0  0.9572044530444881  0.9982183340437696  0.6459560860139721  1.0000
  H   H28       1.0  0.04279554744111716  0.0017816659094783745  0.354043913883473  1.0000
  H   H29       1.0  0.49560337744631855  0.880320275405383  0.7320262008195481  1.0000
  H   H30       1.0  0.5043966230392867  0.11967972454786488  0.26797379907789703  1.0000
  H   H31       1.0  0.33397694408526724  0.7883541590710498  0.7816293054203663  1.0000
  H   H32       1.0  0.666023056400338  0.21164584088219807  0.21837069447707874  1.0000
  H   H33       1.0  0.04131994922882839  0.7878470350380038  0.7757682010019741  1.0000
  H   H34       1.0  0.9586800512567768  0.21215296491524396  0.22423179889547093  1.0000
  H   H35       1.0  0.8953650266569435  0.8807197052652957  0.7205113415469239  1.0000
  H   H36       1.0  0.10463497272557978  0.11928029486530943  0.27948865891241836  1.0000
  H   H37       1.0  0.9505190621766962  0.08815338924888953  0.5616662239861491  1.0000
  H   H38       1.0  0.0494809371645028  0.9118466112732169  0.43833377591317796  1.0000
  H   H39       1.0  0.4579982692252224  0.0850790011495366  0.5553517024192601  1.0000
  H   H40       1.0  0.5420017300725414  0.9149209988031415  0.4446482974775816  1.0000
  H   H41       1.0  0.006114325673332209  0.2036573168071575  0.48277695564011175  1.0000
  H   H42       1.0  0.9938856736244316  0.7963426831455206  0.5172230442567299  1.0000
  H   H43       1.0  0.8541513975937949  0.290257049114506  0.4224545742186847  1.0000
  H   H44       1.0  0.1458486028918103  0.7097429508387418  0.5775454256787603  1.0000
  H   H45       1.0  0.5618111274789847  0.28992651362032434  0.42027023416751275  1.0000
  H   H46       1.0  0.4381888730066206  0.7100734863329234  0.5797297657299323  1.0000
  H   H47       1.0  0.4056698017014442  0.1991281863222595  0.4743752788660097  1.0000
  H   H48       1.0  0.5943301987841612  0.8008718136309885  0.5256247210314354  1.0000
  C   C1        1.0  0.25819924645804987  0.4068981827138549  0.6566260616091026  1.0000
  C   C2        1.0  0.7418007528397139  0.5931018172388233  0.34337393828773904  1.0000
  C   C3        1.0  0.19452049036277458  0.4621074514867201  0.7168232472808685  1.0000
  C   C4        1.0  0.8054795089349892  0.537892548465958  0.28317675261597314  1.0000
  C   C5        1.0  0.20270508254697117  0.5441305049738354  0.7264507435622058  1.0000
  C   C6        1.0  0.7972949167507926  0.4558694949788427  0.2735492563346358  1.0000
  C   C7        1.0  0.2775995423718601  0.5704198155147158  0.6727401461004933  1.0000
  C   C8        1.0  0.7224004569259037  0.4295801844379623  0.3272598537963484  1.0000
  C   C9        1.0  0.34264050318742717  0.5170999917995135  0.6119585417743676  1.0000
  C   C10       1.0  0.6573594961103365  0.4829000081531647  0.3880414581224741  1.0000
  C   C11       1.0  0.3322099827994015  0.435736302476239  0.6042917731508044  1.0000
  C   C12       1.0  0.6677900164983623  0.5642636974764391  0.39570822674603734  1.0000
  C   C13       1.0  0.21950762744197697  0.4613978970784074  0.35798300958593837  1.0000
  C   C14       1.0  0.7804923719405463  0.5386021030521977  0.6420169908734038  1.0000
  C   C15       1.0  0.2837965638626667  0.4283360435853422  0.28882592336669655  1.0000
  C   C16       1.0  0.7162034366229385  0.5716639563679056  0.7111740765307485  1.0000
  C   C17       1.0  0.31164809546349775  0.34719862445358635  0.26145731882894835  1.0000
  C   C18       1.0  0.6883519050221074  0.6528013754996616  0.7385426810684967  1.0000
  C   C19       1.0  0.27578277459673817  0.29893214681072755  0.3062407007325011  1.0000
  C   C20       1.0  0.7242172259736265  0.7010678533204474  0.6937592997274444  1.0000
  C   C21       1.0  0.2099918662518299  0.32971493917618794  0.3750810932129681  1.0000
  C   C22       1.0  0.7900081343185349  0.670285060954987  0.6249189072469775  1.0000
  C   C23       1.0  0.18120832591202593  0.4105916340969505  0.40008324898258923  1.0000
  C   C24       1.0  0.8187916745735793  0.5894083658562973  0.5999167509148557  1.0000
  C   C25       1.0  0.7552702622033378  0.48168223706644187  0.9804362293298243  1.0000
  C   C26       1.0  0.24472973836702686  0.5183177630647331  0.01956377113012117  1.0000
  C   C27       1.0  0.7799922095458484  0.5637783387062804  0.9931198934819956  1.0000
  C   C28       1.0  0.22000778975191546  0.4362216612463976  0.006880106414845951  1.0000
  C   C29       1.0  0.7253573982409516  0.6200750096378393  0.05527806513146948  1.0000
  C   C30       1.0  0.2746426023728484  0.379924991062764  0.9447219353309615  1.0000
  C   C31       1.0  0.6461215501242489  0.5925767865612586  0.10693403457193816  1.0000
  C   C32       1.0  0.35387844917351496  0.40742321339141946  0.8930659653249035  1.0000
  C   C33       1.0  0.618858037919158  0.5112902441074269  0.09618226357403781  1.0000
  C   C34       1.0  0.3811419613786056  0.48870975584525134  0.9038177363228039  1.0000
  C   C35       1.0  0.6727345634664024  0.45680083825690176  0.03293720326065259  1.0000
  C   C36       1.0  0.3272654371039623  0.543199161874273  0.967062797199293  1.0000
  C   C37       1.0  0.26618264642846307  0.9544061075216376  0.16961208681767048  1.0000
  C   C38       1.0  0.7338173541419016  0.04559389260953741  0.8303879136422752  1.0000
  C   C39       1.0  0.3455935558324651  0.857909333659055  0.21884650728498756  1.0000
  C   C40       1.0  0.6544064446531401  0.14209066629419287  0.7811534926124575  1.0000
  C   C41       1.0  0.4298929141208551  0.8061966513544125  0.2482934255085736  1.0000
  C   C42       1.0  0.57010708636475  0.1938033485988353  0.7517065743888715  1.0000
  C   C43       1.0  0.34077649778199054  0.7549619159544833  0.2769434999248779  1.0000
  C   C44       1.0  0.6592235015157732  0.2450380839981949  0.7230564999719638  1.0000
  C   C45       1.0  0.173863368275638  0.7555228360100663  0.2762721824155764  1.0000
  C   C46       1.0  0.8261366322099672  0.24447716394318172  0.7237278174818687  1.0000
  C   C47       1.0  0.0890654482535738  0.8076573040444154  0.24695551882544423  1.0000
  C   C48       1.0  0.9109345523167909  0.1923426960867595  0.7530444816345013  1.0000
  C   C49       1.0  0.177830176755305  0.8587355891790507  0.21831648397981573  1.0000
  C   C50       1.0  0.8221698237303002  0.14126441077419719  0.7816835159176293  1.0000
  C   C51       1.0  0.7620544589175702  0.0016756292576412192  0.09579830633400034  1.0000
  C   C52       1.0  0.23794554038019347  0.9983243706950369  0.9042016935628414  1.0000
  C   C53       1.0  0.843878764388888  0.10081714146982977  0.05086924521894883  1.0000
  C   C54       1.0  0.15612123490887572  0.8991828584828482  0.9491307546778928  1.0000
  C   C55       1.0  0.9290837961685685  0.15673220324001985  0.026596988497846856  1.0000
  C   C56       1.0  0.07091620431703666  0.8432677967132279  0.9734030113995982  1.0000
  C   C57       1.0  0.8400713897164903  0.20758636666851638  0.9975608639785074  1.0000
  C   C58       1.0  0.15992860958127336  0.7924136332841617  0.002439135918334332  1.0000
  C   C59       1.0  0.6726119273952205  0.2021141146367818  0.9923954984833119  1.0000
  C   C60       1.0  0.32738807309038487  0.7978858853164662  0.007604501414133261  1.0000
  C   C61       1.0  0.5870373246043075  0.14683158667890034  0.017416107267387137  1.0000
  C   C62       1.0  0.41296267469345627  0.8531684132737778  0.9825838926294544  1.0000
  C   C63       1.0  0.675664800081713  0.09684119488100044  0.047390985804006504  1.0000
  C   C64       1.0  0.32433520040389224  0.9031588050722474  0.9526090140934386  1.0000
  C   C65       1.0  0.20657464673963885  0.022072234986982745  0.6412764078860719  1.0000
  C   C66       1.0  0.793425352558125  0.9779277649656952  0.3587235920107697  1.0000
  C   C67       1.0  0.28368376686320357  0.9300549399408601  0.6963587486167645  1.0000
  C   C68       1.0  0.7163162336224017  0.06994506001238782  0.30364125128068065  1.0000
  C   C69       1.0  0.3661114374262601  0.8797620956707998  0.728315095200084  1.0000
  C   C70       1.0  0.6338885631027803  0.1202379048518765  0.27168490469984646  1.0000
  C   C71       1.0  0.27442333626637866  0.828846463072666  0.7562628213460822  1.0000
  C   C72       1.0  0.7255766631161445  0.17115353705793912  0.24373717911325987  1.0000
  C   C73       1.0  0.1072401516992104  0.8285557313375035  0.7527648809157846  1.0000
  C   C74       1.0  0.892759847683313  0.17144426879310176  0.24723511954355756  1.0000
  C   C75       1.0  0.02447300729562401  0.8797475102968689  0.7216932775477056  1.0000
  C   C76       1.0  0.9755269931899813  0.12025248965637884  0.2783067223497394  1.0000
  C   C77       1.0  0.11588855750023992  0.93020192896809  0.6934929172383231  1.0000
  C   C78       1.0  0.8841114417975239  0.06979807098458808  0.30650708265851867  1.0000
  C   C79       1.0  0.7031000011487855  0.0639584481689732  0.5686636536761224  1.0000
  C   C80       1.0  0.2968999994215793  0.9360415519622017  0.43133634678382315  1.0000
  C   C81       1.0  0.7890359361407486  0.15363193434295228  0.5125143855440764  1.0000
  C   C82       1.0  0.2109640631570151  0.8463680656097258  0.48748561435276533  1.0000
  C   C83       1.0  0.8767919077411522  0.20314875811777353  0.48165445918420535  1.0000
  C   C84       1.0  0.12320809155661151  0.7968512418349045  0.5183455407126363  1.0000
  C   C85       1.0  0.7906563560264527  0.2516833187748339  0.4484410007005641  1.0000
  C   C86       1.0  0.20934364327131105  0.7483166811778441  0.5515589991962776  1.0000
  C   C87       1.0  0.6233201450458521  0.250538323319636  0.44624142471150574  1.0000
  C   C88       1.0  0.37667985543975313  0.7494616766336119  0.5537585751859393  1.0000
  C   C89       1.0  0.535174836237218  0.2005274734224782  0.476532064276524  1.0000
  C   C90       1.0  0.4648251642483874  0.7994725265307697  0.5234679356209211  1.0000
  C   C91       1.0  0.6210664750462728  0.15220813308996897  0.5097698455080548  1.0000
  C   C92       1.0  0.3789335254393325  0.847791866863279  0.49023015438939027  1.0000
  N   N1        1.0  0.39456475871820895  0.917367447312777  0.1889259986307598  1.0000
  N   N2        1.0  0.6054352417673962  0.0826325526404709  0.8110740012666853  1.0000
  N   N3        1.0  0.134750997675702  0.9186874392033129  0.18819695409753806  1.0000
  N   N4        1.0  0.8652490016220618  0.08131256074936505  0.8118030457993036  1.0000
  N   N5        1.0  0.8916376371471791  0.04042961640805484  0.07940756972834861  1.0000
  N   N6        1.0  0.10836236333842608  0.959570383545193  0.9205924301690965  1.0000
  N   N7        1.0  0.6305444571665142  0.03491305198845002  0.07462022013925794  1.0000
  N   N8        1.0  0.3694555433190911  0.9650869479647979  0.9253797797581872  1.0000
  N   N9        1.0  0.3344748913603326  0.9876428934670296  0.6643974677063506  1.0000
  N   N10       1.0  0.6655251079374311  0.012357106485648518  0.3356025321904912  1.0000
  N   N11       1.0  0.07397946999063754  0.9879375709226906  0.6603242103092946  1.0000
  N   N12       1.0  0.9260205304949676  0.012062429030557247  0.33967578958815053  1.0000
  N   N13       1.0  0.8339474776394133  0.09858536987388886  0.5484438500455598  1.0000
  N   N14       1.0  0.16605252284619193  0.9014146300793591  0.45155614985188525  1.0000
  N   N15       1.0  0.5737457801045466  0.09628412722512077  0.5440596751922889  1.0000
  N   N16       1.0  0.4262542204658181  0.9037158729060543  0.4559403252676567  1.0000
  F   F1        1.0  0.12083790558463209  0.43522969810267614  0.7678637316119734  1.0000
  F   F2        1.0  0.8791620949009731  0.5647703018505718  0.23213626828547157  1.0000
  F   F3        1.0  0.2889893661064449  0.6487829885362136  0.678111646660383  1.0000
  F   F4        1.0  0.7110106331913189  0.3512170114164645  0.3218883532364586  1.0000
  F   F5        1.0  0.41403488975088537  0.5444783479339366  0.5609150236796877  1.0000
  F   F6        1.0  0.5859651095468784  0.4555216520187414  0.439084976217154  1.0000
  F   F7        1.0  0.3934552126978787  0.38523282977965917  0.5441629153764638  1.0000
  F   F8        1.0  0.606544786599885  0.6147671701730189  0.45583708452037797  1.0000
  F   F9        1.0  0.3193764121848103  0.4763212250113827  0.24697223731342358  1.0000
  F   F10       1.0  0.6806235871129535  0.5236787749412954  0.7530277625834182  1.0000
  F   F11       1.0  0.11604581116836071  0.43885253657838275  0.4665675158416294  1.0000
  F   F12       1.0  0.8839541893172446  0.5611474633748651  0.5334324840558157  1.0000
  F   F13       1.0  0.1751394712385667  0.28168738805495575  0.4172307594958584  1.0000
  F   F14       1.0  0.8248605292470386  0.7183126118982922  0.5827692404015866  1.0000
  F   F15       1.0  0.302606281049359  0.22040578544512388  0.283077737601113  1.0000
  F   F16       1.0  0.6973937182484048  0.7795942145075542  0.7169222622957286  1.0000
  F   F17       1.0  0.8598367976495285  0.589591867298738  0.9431862455083332  1.0000
  F   F18       1.0  0.14016320283607686  0.41040813265450987  0.056813754389111744  1.0000
  F   F19       1.0  0.5937747352416084  0.6441672702626065  0.16899680312011756  1.0000
  F   F20       1.0  0.4062252640561553  0.35583272969007174  0.8310031967767242  1.0000
  F   F21       1.0  0.5397986138030626  0.48586192009164203  0.14625668682392629  1.0000
  F   F22       1.0  0.4602013854947012  0.5141380798610361  0.8537433130729155  1.0000
  F   F23       1.0  0.6406881543348216  0.3784217252562972  0.022920921860493156  1.0000
  F   F24       1.0  0.35931184615078354  0.6215782746969506  0.9770790780369518  1.0000
  S   S1        1.0  0.26980188404160216  0.03080388364879746  0.13258479985308175  1.0000
  S   S2        1.0  0.7301981153409212  0.9691961164818077  0.8674152006062604  1.0000
  S   S3        1.0  0.7622285771142018  0.9279892984800525  0.13666948771248116  1.0000
  S   S4        1.0  0.23777142345616292  0.07201070165112237  0.8633305127474644  1.0000
  S   S5        1.0  0.21033146020593896  0.09035258292552187  0.5939605439542098  1.0000
  S   S6        1.0  0.7896685402796664  0.909647417027726  0.4060394559432353  1.0000
  S   S7        1.0  0.7006957149610166  0.9932110898852593  0.6126645336506596  1.0000
  S   S8        1.0  0.2993042855245886  0.006788910067988534  0.3873354662467854  1.0000
  I   I1        1.0  0.23926364050901305  0.28352516278629486  0.6427252942679399  1.0000
  I   I2        1.0  0.7607363588735101  0.7164748373443103  0.35727470619140234  1.0000
  I   I3        1.0  0.11134717587718082  0.625780795995009  0.8182034512993238  1.0000
  I   I4        1.0  0.8886528234205828  0.37421920395766906  0.18179654859751776  1.0000
  I   I5        1.0  0.3947648657384332  0.29642976122873255  0.15551871381746696  1.0000
  I   I6        1.0  0.605235134747172  0.7035702387245154  0.8444812860799781  1.0000
  I   I7        1.0  0.18939805041736668  0.5833481894072338  0.40175251764254266  1.0000
  I   I8        1.0  0.8106019488803972  0.41665181054544426  0.598247482254299  1.0000
  I   I9        1.0  0.8259881023944129  0.39685780598837067  0.8847709887784576  1.0000
  I   I10       1.0  0.1740118980911924  0.6031421939648771  0.11522901111898752  1.0000
  I   I11       1.0  0.7537710338013434  0.7439386635632262  0.07283068973251688  1.0000
  I   I12       1.0  0.24622896549642034  0.2560613363894519  0.9271693101643247  1.0000
