data_image0
_chemical_formula_structural       H20C52N4O4F16S4I8
_chemical_formula_sum              "H20 C52 N4 O4 F16 S4 I8"
_cell_length_a       13.73793168045259
_cell_length_b       4.401463037057048
_cell_length_c       25.079869987339585
_cell_angle_alpha    90.0
_cell_angle_beta     96.22599929965028
_cell_angle_gamma    90.0

_space_group_name_H-M_alt    "P 1"
_space_group_IT_number       1

loop_
  _space_group_symop_operation_xyz
  'x, y, z'

loop_
  _atom_site_type_symbol
  _atom_site_label
  _atom_site_symmetry_multiplicity
  _atom_site_fract_x
  _atom_site_fract_y
  _atom_site_fract_z
  _atom_site_occupancy
  H   H1        1.0  0.050625965311943084  0.21153990892595378  0.46525701346081977  1.0000
  H   H2        1.0  0.4493740346452168  0.711539909260269  0.03474298659931535  1.0000
  H   H3        1.0  0.9493740346023766  0.7884600894707048  0.5347429866594504  1.0000
  H   H4        1.0  0.5506259652691029  0.28846009140836143  0.9652570135209548  1.0000
  H   H5        1.0  0.13510457393494166  0.6089027869678468  0.3852278039197144  1.0000
  H   H6        1.0  0.36489542602221814  0.10890278663353166  0.11477219614042077  1.0000
  H   H7        1.0  0.8648954259793781  0.39109721370078354  0.6147721962005559  1.0000
  H   H8        1.0  0.6351045738118454  0.8910972140350988  0.8852278035787577  1.0000
  H   H9        1.0  0.27548169430856473  0.9654753713077522  0.3812165692913554  1.0000
  H   H10       1.0  0.224518305568339  0.465475370973437  0.11878343036768807  1.0000
  H   H11       1.0  0.7245183055254988  0.034524629360878224  0.6187834304278232  1.0000
  H   H12       1.0  0.7754816942657246  0.5345246296951934  0.8812165693514905  1.0000
  H   H13       1.0  0.39261375651929875  0.06720065748814474  0.4609923823031035  1.0000
  H   H14       1.0  0.10738624335760504  0.56720065782246  0.039007617355939994  1.0000
  H   H15       1.0  0.6073862433147649  0.9327993409085138  0.5390076174160751  1.0000
  H   H16       1.0  0.8926137564764586  0.43279934284617044  0.9609923823632386  1.0000
  H   H17       1.0  0.3717852724954737  0.8214808007152046  0.5496159202974246  1.0000
  H   H18       1.0  0.12821472775840723  0.3214808026528612  0.950384079777618  1.0000
  H   H19       1.0  0.6282147273385899  0.17851919768145397  0.45038407942175407  1.0000
  H   H20       1.0  0.8717852721559124  0.6785191980157692  0.049615920342652255  1.0000
  C   C1        1.0  0.4385342845042834  0.14437575975303224  0.6963858520959811  1.0000
  C   C2        1.0  0.061465714941522684  0.6443757600873474  0.8036141475784357  1.0000
  C   C3        1.0  0.5614657153297803  0.8556242386436264  0.3036141476231975  1.0000
  C   C4        1.0  0.9385342848925409  0.35562423830931117  0.19638585214074297  1.0000
  C   C5        1.0  0.4887783064060664  0.16516370213256837  0.7481601674565785  1.0000
  C   C6        1.0  0.011221693767558544  0.6651637024668836  0.7518398322173726  1.0000
  C   C7        1.0  0.5112216934279973  0.834836298536062  0.2518398322626002  1.0000
  C   C8        1.0  0.9887783060665051  0.3348362982017469  0.24816016750180614  1.0000
  C   C9        1.0  0.5739264770590412  0.3398293152542527  0.7562183747508333  1.0000
  C   C10       1.0  0.9260735228124382  0.839829313316596  0.7437816254295719  1.0000
  C   C11       1.0  0.4260735228552784  0.6601706854143777  0.24378162536943684  1.0000
  C   C12       1.0  0.07392647710188142  0.16017068508006252  0.25621837469069825  1.0000
  C   C13       1.0  0.6089717488604504  0.5002850964465476  0.7143744629128629  1.0000
  C   C14       1.0  0.8910282509307731  0.00028509611223249623  0.7856255368664508  1.0000
  C   C15       1.0  0.39102825105386924  0.4997149042220827  0.2856255372074073  1.0000
  C   C16       1.0  0.10897174890329059  0.999714902284426  0.21437446285272782  1.0000
  C   C17       1.0  0.5590950149739947  0.48012597452436806  0.663135960596923  1.0000
  C   C18       1.0  0.9409049855450476  0.9801259748586834  0.8368640391819248  1.0000
  C   C19       1.0  0.44090498566814385  0.5198740238722905  0.3368640395228813  1.0000
  C   C20       1.0  0.059095014289015986  0.019874023537975294  0.16313596053725382  1.0000
  C   C21       1.0  0.4755910575424206  0.2997285218330691  0.6543822852279452  1.0000
  C   C22       1.0  0.024408941983641397  0.7997285221673843  0.8456177148475631  1.0000
  C   C23       1.0  0.524408942371899  0.7002714765635896  0.34561771489232507  1.0000
  C   C24       1.0  0.9755910578504221  0.2002714785012461  0.15438228487161545  1.0000
  C   C25       1.0  0.1318481342847576  0.2584274388818995  0.5404129775828006  1.0000
  C   C26       1.0  0.3681518652413044  0.7584274392162147  0.9595870224927078  1.0000
  C   C27       1.0  0.868151865629562  0.7415725617867309  0.4595870225374696  1.0000
  C   C28       1.0  0.6318481346730153  0.2415725614524157  0.040412977627562456  1.0000
  C   C29       1.0  0.17654535708195268  0.5185228254298797  0.46982472742636333  1.0000
  C   C30       1.0  0.3234546427949511  0.01852282509556454  0.030175272232680215  1.0000
  C   C31       1.0  0.8234546427521109  0.48147717296677883  0.5301752722928152  1.0000
  C   C32       1.0  0.6765453570391126  0.981477173301094  0.9698247274864984  1.0000
  C   C33       1.0  0.18649693179928942  0.6533469248267887  0.42050619514892446  1.0000
  C   C34       1.0  0.3135030681578704  0.15334692676444528  0.0794938049112107  1.0000
  C   C35       1.0  0.8135030681150303  0.3466530735698699  0.5794938049713458  1.0000
  C   C36       1.0  0.6864969317564492  0.8466530739041851  0.9205061952090595  1.0000
  C   C37       1.0  0.26571306290091096  0.8511387778243983  0.4187783853810878  1.0000
  C   C38       1.0  0.23428693705624884  0.35113877749008304  0.08122161467904726  1.0000
  C   C39       1.0  0.7342869370134086  0.14886122284423212  0.5812216147391823  1.0000
  C   C40       1.0  0.7657130628580708  0.6488612231785473  0.9187783854412229  1.0000
  C   C41       1.0  0.3322566154664683  0.909934264193638  0.464186380569479  1.0000
  C   C42       1.0  0.16774338449069157  0.40993426385932275  0.0358136194906561  1.0000
  C   C43       1.0  0.6677433844478514  0.09006573420302062  0.5358136195507912  1.0000
  C   C44       1.0  0.8322566154236282  0.5900657345373358  0.9641863806296141  1.0000
  C   C45       1.0  0.32202459260487337  0.7745811088940906  0.5138386691728057  1.0000
  C   C46       1.0  0.17797540692118874  0.27458110855977536  0.9861613309027027  1.0000
  C   C47       1.0  0.6779754073094463  0.2254188917745398  0.48616133094746455  1.0000
  C   C48       1.0  0.8220245929931308  0.725418892108855  0.013838669217567543  1.0000
  C   C49       1.0  0.24293446299348645  0.5804524287697401  0.514839814502068  1.0000
  C   C50       1.0  0.25706553653257563  0.0804524307073967  0.9851601855734405  1.0000
  C   C51       1.0  0.7570655369208332  0.4195475696269185  0.48516018561820234  1.0000
  C   C52       1.0  0.742934463381744  0.9195475699612337  0.014839814546829764  1.0000
  N   N1        1.0  0.108971732959645  0.3169410303472053  0.48762045674334237  1.0000
  N   N2        1.0  0.39102826699751486  0.8169410284095486  0.01237954331679271  1.0000
  N   N3        1.0  0.8910282668744185  0.6830589703214252  0.5123795429758362  1.0000
  N   N4        1.0  0.608971732916805  0.18305896998710997  0.9876204568034775  1.0000
  O   O1        1.0  0.21473916883151403  0.41839391231859874  0.5581139144063941  1.0000
  O   O2        1.0  0.28526083142236697  0.918393912652914  0.9418860856686484  1.0000
  O   O3        1.0  0.7852608310828056  0.5816060883500317  0.441886085713876  1.0000
  O   O4        1.0  0.7147391692197717  0.08160608801571644  0.05811391445115605  1.0000
  F   F1        1.0  0.6244016054794875  0.3643001489504994  0.8055104742482837  1.0000
  F   F2        1.0  0.8755983943919918  0.8643001492848146  0.6944895259321215  1.0000
  F   F3        1.0  0.37559839443483206  0.635699851718131  0.19448952587198648  1.0000
  F   F4        1.0  0.12440160552232775  0.13569985138381582  0.3055104741881486  1.0000
  F   F5        1.0  0.6888699997722519  0.6787530020921265  0.7230335082189128  1.0000
  F   F6        1.0  0.8111300000189715  0.17875300402978314  0.7769664915604009  1.0000
  F   F7        1.0  0.3111300000618117  0.3212469963045321  0.2769664915002659  1.0000
  F   F8        1.0  0.1888699998953481  0.8212469966388473  0.22303350855986917  1.0000
  F   F9        1.0  0.5902898532531866  0.6423292746518995  0.6226169289731267  1.0000
  F   F10       1.0  0.909710146618293  0.14232927431758424  0.8773830712072785  1.0000
  F   F11       1.0  0.40971014666113315  0.35767072601673094  0.3773830711471435  1.0000
  F   F12       1.0  0.09028985329602668  0.8576707263510461  0.12261692891299163  1.0000
  F   F13       1.0  0.43043238354502267  0.28711464559860633  0.6036542643226721  1.0000
  F   F14       1.0  0.06956761670885828  0.7871146459329216  0.8963457357523704  1.0000
  F   F15       1.0  0.569567616369297  0.712885355070024  0.396345735797598  1.0000
  F   F16       1.0  0.9304323839332803  0.21288535473570883  0.10365426436743402  1.0000
  S   S1        1.0  0.07546861868580267  0.037619191302061115  0.5812102817035523  1.0000
  S   S2        1.0  0.4245313807600033  0.5376191893644046  0.9187897179708644  1.0000
  S   S3        1.0  0.9245313811482608  0.9623808093665693  0.4187897180156263  1.0000
  S   S4        1.0  0.5754686190740602  0.46238080903225404  0.0812102817483142  1.0000
  I   I1        1.0  0.3055508983978284  0.9122937796348819  0.679925876734092  1.0000
  I   I2        1.0  0.1944491017757965  0.41229377930056654  0.820074122939859  1.0000
  I   I3        1.0  0.6944491014362352  0.08770622103374863  0.3200741229850867  1.0000
  I   I4        1.0  0.8055508987860859  0.5877062213680638  0.17992587677885383  1.0000
  I   I5        1.0  0.44241048972410135  0.9418630953156562  0.8156372931162915  1.0000
  I   I6        1.0  0.05758950980196067  0.44186309498134096  0.6843627069592167  1.0000
  I   I7        1.0  0.5575895101099622  0.05813690308100239  0.184362706602887  1.0000
  I   I8        1.0  0.9424104901123591  0.5581369034153176  0.3156372931610535  1.0000
