data_image0
_chemical_formula_structural       H16C28N4F8S2I4
_chemical_formula_sum              "H16 C28 N4 F8 S2 I4"
_cell_length_a       4.5314402393917845
_cell_length_b       13.26927890924036
_cell_length_c       13.698379905764233
_cell_angle_alpha    94.63633784706404
_cell_angle_beta     97.9434712031627
_cell_angle_gamma    99.95043325369309

_space_group_name_H-M_alt    "P 1"
_space_group_IT_number       1

loop_
  _space_group_symop_operation_xyz
  'x, y, z'

loop_
  _atom_site_type_symbol
  _atom_site_label
  _atom_site_symmetry_multiplicity
  _atom_site_fract_x
  _atom_site_fract_y
  _atom_site_fract_z
  _atom_site_occupancy
  H   H1        1.0  0.16067164307356058  0.4205843612010218  0.020105228513125184  1.0000
  H   H2        1.0  0.8393283556045064  0.5794156390039907  0.9798947713647816  1.0000
  H   H3        1.0  0.2542990431921889  0.35082033008535585  0.7293486463457994  1.0000
  H   H4        1.0  0.7457009576934703  0.6491796701221421  0.2706513535310204  1.0000
  H   H5        1.0  0.49000092254479954  0.27125156748476154  0.10826473144377186  1.0000
  H   H6        1.0  0.5099990761332672  0.7287484327202509  0.8917352684341349  1.0000
  H   H7        1.0  0.7570497627022127  0.131113111126773  0.058665951311990414  1.0000
  H   H8        1.0  0.2429502359758542  0.8688868890782394  0.9413340485659163  1.0000
  H   H9        1.0  0.5775896087650282  0.18224172187349522  0.7509483942256244  1.0000
  H   H10       1.0  0.4224103921206311  0.8177582783340027  0.24905160565119552  1.0000
  H   H11       1.0  0.7157269458096378  0.986380813882136  0.8927294496466014  1.0000
  H   H12       1.0  0.28427305469681863  0.013619185560336592  0.10727055023111158  1.0000
  H   H13       1.0  0.06926820248020756  0.07173489383185927  0.918524562911578  1.0000
  H   H14       1.0  0.9307317980262487  0.9282651056106134  0.08147543696613484  1.0000
  H   H15       1.0  0.8601176053404826  0.052976918159319174  0.7970450225852822  1.0000
  H   H16       1.0  0.13988239295838142  0.9470230812806678  0.20295497729351755  1.0000
  C   C1        1.0  0.3790266838812961  0.2671487503197445  0.47981753292859003  1.0000
  C   C2        1.0  0.6209733144175679  0.7328512491202425  0.5201824669502095  1.0000
  C   C3        1.0  0.37988542924442  0.26299763789309016  0.3771438970800702  1.0000
  C   C4        1.0  0.6201145716412393  0.7370023623144077  0.6228561027967497  1.0000
  C   C5        1.0  0.17240450152837494  0.18652680549606485  0.3149099268694282  1.0000
  C   C6        1.0  0.8275954993572844  0.8134731947114331  0.6850900730073918  1.0000
  C   C7        1.0  0.961126353387966  0.11614853137535723  0.35152221191194816  1.0000
  C   C8        1.0  0.03887364749769327  0.8838514688321407  0.6484777879648718  1.0000
  C   C9        1.0  0.9591751365103695  0.12131584081210353  0.45319520293831894  1.0000
  C   C10       1.0  0.04082486216769736  0.8786841593929089  0.5468047969395877  1.0000
  C   C11       1.0  0.17039743704818727  0.19530765878878986  0.5163070359290216  1.0000
  C   C12       1.0  0.8296025616298794  0.8046923414162224  0.48369296394888506  1.0000
  C   C13       1.0  0.1512172486081997  0.41105188763007594  0.8647698676997838  1.0000
  C   C14       1.0  0.8487827526326669  0.5889481126609535  0.13523013291840394  1.0000
  C   C15       1.0  0.3822173479185263  0.30455855761742895  0.9566751790612157  1.0000
  C   C16       1.0  0.6177826507595408  0.6954414425875836  0.043324820816691166  1.0000
  C   C17       1.0  0.5063659836920625  0.2516369324500493  0.03092394198587097  1.0000
  C   C18       1.0  0.49363401498600434  0.7483630677549632  0.9690760578920357  1.0000
  C   C19       1.0  0.6549528792930256  0.17321805189523906  0.001985828492005721  1.0000
  C   C20       1.0  0.3450471219478409  0.8267819483957902  0.9980141721261819  1.0000
  C   C21       1.0  0.6821579262857063  0.14683609301751466  0.9020848015623866  1.0000
  C   C22       1.0  0.3178420749551603  0.8531639072735148  0.097915199055801  1.0000
  C   C23       1.0  0.5586243914969151  0.20112087333412315  0.8282967574118633  1.0000
  C   C24       1.0  0.4413756068019489  0.7988791261058638  0.17170324246693644  1.0000
  C   C25       1.0  0.40855583274919205  0.27935396057748024  0.8568018941187076  1.0000
  C   C26       1.0  0.591444168136467  0.7206460396300176  0.1431981057581124  1.0000
  C   C27       1.0  0.8399531930638281  0.06008055597903011  0.8759363150196523  1.0000
  C   C28       1.0  0.16004680561423887  0.9399194442259823  0.12406368485825442  1.0000
  N   N1        1.0  0.22401921351127574  0.38551177817281973  0.9583665230462672  1.0000
  N   N2        1.0  0.7759807847875884  0.6144882212671672  0.04163347683253247  1.0000
  N   N3        1.0  0.2617614627455203  0.34559950207734036  0.8033081685070467  1.0000
  N   N4        1.0  0.7382385381401388  0.6544004981301575  0.19669183136977317  1.0000
  F   F1        1.0  0.16184006518851932  0.18000868061423322  0.21523554825656585  1.0000
  F   F2        1.0  0.8381599334895475  0.8199913195907792  0.7847644516213408  1.0000
  F   F3        1.0  0.7556199623335397  0.045095346748185786  0.2899078680182806  1.0000
  F   F4        1.0  0.24438003634452726  0.9549046534568266  0.710092131859626  1.0000
  F   F5        1.0  0.7533555537045546  0.05529272217312232  0.4901524524548297  1.0000
  F   F6        1.0  0.24664444718110448  0.9447072780343756  0.5098475474219901  1.0000
  F   F7        1.0  0.16272184360540598  0.19431163733750895  0.6150337452491138  1.0000
  F   F8        1.0  0.8372781546934579  0.8056883621024781  0.38496625462968576  1.0000
  S   S1        1.0  0.9596832674927671  0.5041290871808755  0.829939247977748  1.0000
  S   S2        1.0  0.04031673301368931  0.4958709122615972  0.17006075189996486  1.0000
  I   I1        1.0  0.663869739012904  0.38017367754903625  0.5842997440666245  1.0000
  I   I2        1.0  0.3361302618727552  0.6198263226584617  0.41570025581019543  1.0000
  I   I3        1.0  0.6625424926557076  0.36995177409087376  0.3061832516306999  1.0000
  I   I4        1.0  0.33745750602235913  0.6300482261141387  0.6938167482472066  1.0000
