data_image0
_chemical_formula_structural       H32C56N8F12S4I12
_chemical_formula_sum              "H32 C56 N8 F12 S4 I12"
_cell_length_a       15.097098711059987
_cell_length_b       4.993755394268823
_cell_length_c       22.748729859544287
_cell_angle_alpha    90.0
_cell_angle_beta     97.81480661266393
_cell_angle_gamma    90.0

_space_group_name_H-M_alt    "P 1"
_space_group_IT_number       1

loop_
  _space_group_symop_operation_xyz
  'x, y, z'

loop_
  _atom_site_type_symbol
  _atom_site_label
  _atom_site_symmetry_multiplicity
  _atom_site_fract_x
  _atom_site_fract_y
  _atom_site_fract_z
  _atom_site_occupancy
  H   H1        1.0  0.5137383866516063  0.32409419008737217  0.4653927299342004  1.0000
  H   H2        1.0  0.48626161343859975  0.8240941906612065  0.03460726983626541  1.0000
  H   H3        1.0  0.48626161341865776  0.6759058090577956  0.5346072702005911  1.0000
  H   H4        1.0  0.513738386543154  0.17590580848396126  0.9653927298548232  1.0000
  H   H5        1.0  0.2504796368201266  0.09607287344322284  0.4255686774997807  1.0000
  H   H6        1.0  0.7495203633585898  0.5960728720145563  0.07443132271438796  1.0000
  H   H7        1.0  0.7495203632501375  0.9039271277044459  0.5744313226350107  1.0000
  H   H8        1.0  0.2504796367116742  0.4039271271306115  0.9255686774204035  1.0000
  H   H9        1.0  0.5932209633806184  0.963543748162403  0.38995346385094126  1.0000
  H   H10       1.0  0.4067790367095877  0.4635437475885686  0.11004653591952457  1.0000
  H   H11       1.0  0.40677903668964566  0.03645625298526581  0.6100465362838503  1.0000
  H   H12       1.0  0.5932209632721661  0.5364562535591001  0.889953463771564  1.0000
  H   H13       1.0  0.39234887163586274  0.4699542037428166  0.28898925208688886  1.0000
  H   H14       1.0  0.6076511284543433  0.969954204316651  0.21101074768357694  1.0000
  H   H15       1.0  0.6076511284344014  0.5300457954023512  0.7110107480479028  1.0000
  H   H16       1.0  0.3923488715274105  0.030045794828516784  0.7889892520075117  1.0000
  H   H17       1.0  0.27182271260161406  0.6886526808955822  0.3360392352370181  1.0000
  H   H18       1.0  0.7281772875771023  0.1886526803217478  0.16396076497715056  1.0000
  H   H19       1.0  0.7281772874686501  0.3113473182495856  0.6639607648977734  1.0000
  H   H20       1.0  0.27182271249316176  0.81134731882342  0.8360392351576409  1.0000
  H   H21       1.0  0.5927234437341363  0.377073693309263  0.33151138783939804  1.0000
  H   H22       1.0  0.4072765556933661  0.8770736918805965  0.16848861192946135  1.0000
  H   H23       1.0  0.4072765563361278  0.6229263078384056  0.6684886122953935  1.0000
  H   H24       1.0  0.592723443625684  0.12292630726457135  0.8315113877600209  1.0000
  H   H25       1.0  0.6311332158761712  0.6882523989750271  0.30822492794016165  1.0000
  H   H26       1.0  0.3688667835513311  0.1882523984011928  0.1917750718286978  1.0000
  H   H27       1.0  0.36886678344287877  0.31174760017014064  0.6917750717493206  1.0000
  H   H28       1.0  0.6311332164304227  0.8117476007439751  0.808224927862391  1.0000
  H   H29       1.0  0.547410003517189  0.506638085017867  0.26175239794998517  1.0000
  H   H30       1.0  0.45258999666152727  0.006638084444032648  0.23824760226418357  1.0000
  H   H31       1.0  0.45258999655307497  0.49336191612980174  0.7382476021848063  1.0000
  H   H32       1.0  0.5474100034087367  0.9933619147011352  0.7617523978706079  1.0000
  C   C1        1.0  0.8832474947150905  0.5381364239594425  0.30321109594966933  1.0000
  C   C2        1.0  0.11675250546362587  0.03813642338560807  0.19678890426449938  1.0000
  C   C3        1.0  0.11675250535517355  0.4618635751857253  0.6967889041851222  1.0000
  C   C4        1.0  0.8832474946066382  0.9618635757595597  0.8032110958702922  1.0000
  C   C5        1.0  0.9679619039282027  0.6000394779926411  0.33280621822686257  1.0000
  C   C6        1.0  0.03203809616200346  0.10003947741880669  0.16719378154360323  1.0000
  C   C7        1.0  0.03203809614206147  0.3999605211525267  0.667193781907929  1.0000
  C   C8        1.0  0.9679619038197503  0.899960521726361  0.8328062181474855  1.0000
  C   C9        1.0  0.0032814429675485997  0.4720229234105553  0.38519466512612033  1.0000
  C   C10       1.0  0.9967185571226574  0.9720229239843897  0.11480533464434546  1.0000
  C   C11       1.0  0.9967185570142052  0.5279770757346125  0.6148053345649682  1.0000
  C   C12       1.0  0.0032814429476065755  0.02797707716327908  0.885194665490446  1.0000
  C   C13       1.0  0.9499110641553545  0.28092973108175423  0.40811308753085873  1.0000
  C   C14       1.0  0.05008893593485157  0.7809297296530877  0.09188691223960703  1.0000
  C   C15       1.0  0.05008893582639926  0.7190702700659145  0.5918869121602299  1.0000
  C   C16       1.0  0.9499110640469022  0.21907026949208017  0.9081130874514817  1.0000
  C   C17       1.0  0.8640299322981159  0.21489335085006203  0.3812699557823677  1.0000
  C   C18       1.0  0.1359700678806005  0.7148933514238964  0.11873004443180091  1.0000
  C   C19       1.0  0.13597006777214818  0.7851066482951058  0.6187300443524237  1.0000
  C   C20       1.0  0.8640299321896636  0.28510664772127137  0.8812699557029905  1.0000
  C   C21       1.0  0.8327680700473292  0.34505344254097076  0.32822360145577484  1.0000
  C   C22       1.0  0.16723193004287687  0.8450534411123042  0.17177639831469094  1.0000
  C   C23       1.0  0.16723192993442457  0.6549465586066979  0.6717763982353138  1.0000
  C   C24       1.0  0.8327680700273873  0.15494655803286364  0.8282236018201006  1.0000
  C   C25       1.0  0.37246806762385926  0.27143667900827734  0.45991827626343695  1.0000
  C   C26       1.0  0.6275319324663469  0.7714366775796108  0.04008172350702878  1.0000
  C   C27       1.0  0.6275319323578945  0.7285633221393913  0.5400817234276516  1.0000
  C   C28       1.0  0.3724680676039172  0.22856332156555703  0.9599182766277627  1.0000
  C   C29       1.0  0.455847438331621  0.022620188832164326  0.404776688173638  1.0000
  C   C30       1.0  0.5441525611843916  0.5226201874034978  0.09522331203892422  1.0000
  C   C31       1.0  0.544152561738643  0.9773798123155044  0.5952233119611535  1.0000
  C   C32       1.0  0.45584743822316875  0.47737981174167005  0.9047766880942609  1.0000
  C   C33       1.0  0.5237390648406525  0.9034520603828221  0.3782779478420416  1.0000
  C   C34       1.0  0.4762609353380639  0.4034520598089877  0.12172205237212713  1.0000
  C   C35       1.0  0.47626093522961166  0.0965479407648467  0.62172205229275  1.0000
  C   C36       1.0  0.5237390647322001  0.596547941338681  0.8782779477626644  1.0000
  C   C37       1.0  0.5001569717544663  0.701446086850812  0.3363890590348299  1.0000
  C   C38       1.0  0.49984302776154643  0.2014460862769777  0.16361094117773237  1.0000
  C   C39       1.0  0.49984302831579774  0.2985539142968567  0.6636109410999617  1.0000
  C   C40       1.0  0.500156971646014  0.7985539128681901  0.8363890589554528  1.0000
  C   C41       1.0  0.40968204059528984  0.6261925611312121  0.32205078515782815  1.0000
  C   C42       1.0  0.5903179594949163  0.12619256255987865  0.17794921461263766  1.0000
  C   C43       1.0  0.5903179593864639  0.3738074380139557  0.6779492145332605  1.0000
  C   C44       1.0  0.4096820405753478  0.87380743858779  0.8220507855221538  1.0000
  C   C45       1.0  0.34142079638405526  0.7455906499291318  0.34825656540152483  1.0000
  C   C46       1.0  0.6585792030434472  0.24559064935529754  0.15174343436733453  1.0000
  C   C47       1.0  0.6585792029349948  0.25440934921603586  0.6517434342879573  1.0000
  C   C48       1.0  0.34142079702681694  0.7544093497898703  0.848256565767457  1.0000
  C   C49       1.0  0.36595679521949037  0.9445900965461008  0.3901310048691237  1.0000
  C   C50       1.0  0.6340432048707157  0.44459009597226656  0.1098689949013421  1.0000
  C   C51       1.0  0.6340432047622634  0.05540990460156778  0.6098689948219649  1.0000
  C   C52       1.0  0.36595679519954843  0.5554099031729012  0.8901310052334495  1.0000
  C   C53       1.0  0.5713940845589268  0.5629399235746124  0.3077748557934496  1.0000
  C   C54       1.0  0.4286059156197896  0.06293992500327907  0.1922251444207191  1.0000
  C   C55       1.0  0.4286059155113373  0.4370600755705553  0.692225144341342  1.0000
  C   C56       1.0  0.5713940844504746  0.9370600761443897  0.8077748557140725  1.0000
  N   N1        1.0  0.4569738973233663  0.22221595820923848  0.4475527958413993  1.0000
  N   N2        1.0  0.5430261027668398  0.7222159587830729  0.05244720392906653  1.0000
  N   N3        1.0  0.5430261027468978  0.7777840409359293  0.5524472042933922  1.0000
  N   N4        1.0  0.45697389721491394  0.2777840403620949  0.947552795762022  1.0000
  N   N5        1.0  0.3175853350735097  0.10175780747755327  0.42468186314117895  1.0000
  N   N6        1.0  0.6824146643539927  0.6017578080513877  0.07531813662768048  1.0000
  N   N7        1.0  0.6824146642455404  0.8982421916676144  0.5753181365483033  1.0000
  N   N8        1.0  0.3175853356277611  0.3982421910937802  0.9246818630634083  1.0000
  F   F1        1.0  0.016866921457380876  0.7909346850534543  0.31002152753474027  1.0000
  F   F2        1.0  0.9831330787213356  0.29093468648212084  0.18997847267942844  1.0000
  F   F3        1.0  0.9831330786128831  0.2090653140917135  0.6899784726000513  1.0000
  F   F4        1.0  0.016866921348928542  0.7090653146655478  0.810021527455363  1.0000
  F   F5        1.0  0.9832732250471065  0.1536615591706117  0.45846111997055505  1.0000
  F   F6        1.0  0.016726775043099638  0.6536615597444461  0.041538879799910715  1.0000
  F   F7        1.0  0.016726774934647328  0.8463384419770571  0.5415388797205335  1.0000
  F   F8        1.0  0.9832732250271645  0.3463384414032227  0.9584611203348808  1.0000
  F   F9        1.0  0.7501375513181661  0.286304710006594  0.30053766063090864  1.0000
  F   F10       1.0  0.2498624481978467  0.7863047105804284  0.19946233958165363  1.0000
  F   F11       1.0  0.24986244875209804  0.7136952911410748  0.6994623395038828  1.0000
  F   F12       1.0  0.7501375512097137  0.21369529056724035  0.8005376605515314  1.0000
  S   S1        1.0  0.33961943493639346  0.49413161141852396  0.5085041501219145  1.0000
  S   S2        1.0  0.6603805650254183  0.9941316119923582  0.9914958499334998  1.0000
  S   S3        1.0  0.6603805650453604  0.5058683897291448  0.49149584956917414  1.0000
  S   S4        1.0  0.33961943504484576  0.005868389155310406  0.00850415020129169  1.0000
  I   I1        1.0  0.8338562331723807  0.7356720063253932  0.22469876449122336  1.0000
  I   I2        1.0  0.16614376625512173  0.2356720077540598  0.27530123527763606  1.0000
  I   I3        1.0  0.16614376689788343  0.2643279928197746  0.7753012356435681  1.0000
  I   I4        1.0  0.833856233726632  0.7643279933936089  0.7246987644134525  1.0000
  I   I5        1.0  0.1331118213737112  0.5459544100075389  0.4294668358932253  1.0000
  I   I6        1.0  0.8668881788050051  0.04595440943370451  0.07053316432094342  1.0000
  I   I7        1.0  0.8668881786965529  0.4540455911401298  0.5705331642415662  1.0000
  I   I8        1.0  0.13311182126525886  0.9540455897114632  0.929466835813848  1.0000
  I   I9        1.0  0.7851972187475555  0.9379714123314249  0.421573199984405  1.0000
  I   I10       1.0  0.21480278143116083  0.4379714117575906  0.07842680022976373  1.0000
  I   I11       1.0  0.21480278132270852  0.062028586813742785  0.5784268001503866  1.0000
  I   I12       1.0  0.7851972186391033  0.5620285873875772  0.9215731999050278  1.0000
