data_image0
_chemical_formula_structural       H40C80N8O8F16S8I8
_chemical_formula_sum              "H40 C80 N8 O8 F16 S8 I8"
_cell_length_a       30.824528695608326
_cell_length_b       4.294612335985633
_cell_length_c       18.909045339198382
_cell_angle_alpha    90.0
_cell_angle_beta     114.46454485152915
_cell_angle_gamma    90.0

_space_group_name_H-M_alt    "P 1"
_space_group_IT_number       1

loop_
  _space_group_symop_operation_xyz
  'x, y, z'

loop_
  _atom_site_type_symbol
  _atom_site_label
  _atom_site_symmetry_multiplicity
  _atom_site_fract_x
  _atom_site_fract_y
  _atom_site_fract_z
  _atom_site_occupancy
  H   H1        1.0  0.4602263637704054  0.19928817621755723  0.46034047266042233  1.0000
  H   H2        1.0  0.5397736361234357  0.19928817621755723  0.03965952717390096  1.0000
  H   H3        1.0  0.960226363826751  0.6992881743564308  0.4603404726659773  1.0000
  H   H4        1.0  0.03977363639149633  0.6992881743564308  0.0396595271683044  1.0000
  H   H5        1.0  0.5397736362289915  0.8007118247171877  0.5396595269970728  1.0000
  H   H6        1.0  0.46022636369918113  0.8007118247171877  0.9603404730646478  1.0000
  H   H7        1.0  0.03977363617264593  0.30071182424981524  0.5396595269915178  1.0000
  H   H8        1.0  0.9602263637555268  0.30071182424981524  0.9603404730702026  1.0000
  H   H9        1.0  0.3729065774734705  0.5850271627423569  0.39231239291431325  1.0000
  H   H10       1.0  0.6270934224203705  0.5850271627423569  0.10768760692001003  1.0000
  H   H11       1.0  0.8729065775298163  0.08502716460348322  0.39231239291986825  1.0000
  H   H12       1.0  0.12709342236402474  0.08502716460348322  0.10768760691445507  1.0000
  H   H13       1.0  0.6270934225259264  0.4149728358638893  0.6076876067431818  1.0000
  H   H14       1.0  0.3729065777266527  0.4149728358638893  0.8923123933184969  1.0000
  H   H15       1.0  0.12709342246958072  0.9149728363312617  0.6076876067376269  1.0000
  H   H16       1.0  0.8729065777829984  0.9149728363312617  0.8923123933240519  1.0000
  H   H17       1.0  0.3324329961695605  0.9405559137791089  0.2787295465360085  1.0000
  H   H18       1.0  0.6675670037242805  0.9405559137791089  0.22127045329831474  1.0000
  H   H19       1.0  0.8324329962259063  0.4405559156402352  0.2787295465415635  1.0000
  H   H20       1.0  0.16756700366793473  0.4405559156402352  0.2212704532927598  1.0000
  H   H21       1.0  0.6675670038298365  0.05944408482713724  0.7212704531214866  1.0000
  H   H22       1.0  0.3324329964227427  0.05944408482713724  0.7787295469401923  1.0000
  H   H23       1.0  0.1675670037734907  0.5594440852945097  0.7212704531159316  1.0000
  H   H24       1.0  0.8324329964790884  0.5594440852945097  0.7787295469457473  1.0000
  H   H25       1.0  0.3681188901100171  0.052817014029263205  0.18639200139563156  1.0000
  H   H26       1.0  0.6318811099314501  0.052817014029263205  0.3136079990197037  1.0000
  H   H27       1.0  0.8681188901663629  0.5528170144966357  0.18639200140118653  1.0000
  H   H28       1.0  0.13188110987510437  0.5528170144966357  0.3136079990141487  1.0000
  H   H29       1.0  0.631881110037006  0.9471829845769829  0.8136079988428754  1.0000
  H   H30       1.0  0.368118890215573  0.9471829845769829  0.6863920012188033  1.0000
  H   H31       1.0  0.13188110998066035  0.4471829864381093  0.8136079988373204  1.0000
  H   H32       1.0  0.8681188899475123  0.4471829864381093  0.6863920012243998  1.0000
  H   H33       1.0  0.4453691706602313  0.8097007291816323  0.20165777855722866  1.0000
  H   H34       1.0  0.5546308293812359  0.8097007291816323  0.29834222185810666  1.0000
  H   H35       1.0  0.945369170716577  0.3097007310427587  0.20165777856278364  1.0000
  H   H36       1.0  0.054630829324890155  0.3097007310427587  0.2983422218525516  1.0000
  H   H37       1.0  0.5546308294867919  0.1902992694246138  0.7983422216812784  1.0000
  H   H38       1.0  0.4453691707657873  0.1902992694246138  0.7016577783804004  1.0000
  H   H39       1.0  0.054630829430446136  0.6902992698919863  0.7983422216757234  1.0000
  H   H40       1.0  0.945369170822133  0.6902992698919863  0.7016577783859554  1.0000
  C   C1        1.0  0.7060740534620409  0.6008287775776165  0.48449720851964123  1.0000
  C   C2        1.0  0.29392594643180003  0.6008287775776165  0.015502791314682018  1.0000
  C   C3        1.0  0.2060740534056952  0.10082877711024407  0.48449720851408623  1.0000
  C   C4        1.0  0.7939259464881457  0.10082877711024407  0.015502791320236988  1.0000
  C   C5        1.0  0.29392594653735604  0.39917122102862956  0.5155027911378538  1.0000
  C   C6        1.0  0.7060740535675969  0.39917122102862956  0.9844972083428131  1.0000
  C   C7        1.0  0.7939259462692952  0.899171221496002  0.5155027911434503  1.0000
  C   C8        1.0  0.20607405351125116  0.899171221496002  0.984497208337258  1.0000
  C   C9        1.0  0.729575307974612  0.7707407935902397  0.5526589866654881  1.0000
  C   C10       1.0  0.2704246919535608  0.7707407935902397  0.9473410133962322  1.0000
  C   C11       1.0  0.22957530824267258  0.2707407931228673  0.5526589866598913  1.0000
  C   C12       1.0  0.7704246920099065  0.2707407931228673  0.9473410134017873  1.0000
  C   C13       1.0  0.27042469184800483  0.2292592073445052  0.44734101357306066  1.0000
  C   C14       1.0  0.7295753081934624  0.2292592073445052  0.05265898684227465  1.0000
  C   C15       1.0  0.7704246919043505  0.7292592078118777  0.4473410135786156  1.0000
  C   C16       1.0  0.22957530813711666  0.7292592078118777  0.052658986836719684  1.0000
  C   C17       1.0  0.7273178991627018  0.5808060832637502  0.4323334664487675  1.0000
  C   C18       1.0  0.2726821008787652  0.5808060832637502  0.06766653396656774  1.0000
  C   C19       1.0  0.22731789910635622  0.08080608279637767  0.4323334664432126  1.0000
  C   C20       1.0  0.7726821009351109  0.08080608279637767  0.0676665339721227  1.0000
  C   C21       1.0  0.2726821006599148  0.41919391534249595  0.5676665337897812  1.0000
  C   C22       1.0  0.7273178992682579  0.41919391534249595  0.9323334662719392  1.0000
  C   C23       1.0  0.7726821007162605  0.9191939158098683  0.567666533795336  1.0000
  C   C24       1.0  0.2273178992119122  0.9191939158098683  0.9323334662663844  1.0000
  C   C25       1.0  0.5008177487141993  0.24502953414035936  0.39494169480471586  1.0000
  C   C26       1.0  0.4991822515040481  0.24502953414035936  0.10505830502956583  1.0000
  C   C27       1.0  0.0008177486578535505  0.7450295346077318  0.39494169479916086  1.0000
  C   C28       1.0  0.9991822512359875  0.7450295346077318  0.10505830503516239  1.0000
  C   C29       1.0  0.4991822514328239  0.7549704667943856  0.6050583054337912  1.0000
  C   C30       1.0  0.5008177484953489  0.7549704667943856  0.8949416946279292  1.0000
  C   C31       1.0  0.9991822514891695  0.25497046632701315  0.6050583054393461  1.0000
  C   C32       1.0  0.0008177484390031132  0.25497046632701315  0.8949416946223742  1.0000
  C   C33       1.0  0.431590905705751  0.5042207935406172  0.35927295469509635  1.0000
  C   C34       1.0  0.5684090945124963  0.5042207935406172  0.14072704513918532  1.0000
  C   C35       1.0  0.9315909054376904  0.00422079307324484  0.35927295470069287  1.0000
  C   C36       1.0  0.06840909445615068  0.00422079307324484  0.14072704513363035  1.0000
  C   C37       1.0  0.568409094293646  0.49577920739412756  0.6407270449623986  1.0000
  C   C38       1.0  0.4315909056345268  0.49577920739412756  0.8592729550993218  1.0000
  C   C39       1.0  0.06840909423730022  0.9957792055330011  0.6407270449568436  1.0000
  C   C40       1.0  0.9315909056908724  0.9957792055330011  0.8592729551048767  1.0000
  C   C41       1.0  0.38841245680763303  0.6339874817537219  0.351206380448559  1.0000
  C   C42       1.0  0.6115875430862079  0.6339874817537219  0.14879361938576427  1.0000
  C   C43       1.0  0.8884124568639787  0.13398748128634932  0.35120638045411395  1.0000
  C   C44       1.0  0.1115875430298622  0.13398748128634932  0.14879361938020927  1.0000
  C   C45       1.0  0.6115875428673574  0.36601251685252423  0.6487936192089776  1.0000
  C   C46       1.0  0.38841245706081523  0.36601251685252423  0.8512063808527428  1.0000
  C   C47       1.0  0.1115875431354182  0.8660125173198968  0.6487936192033811  1.0000
  C   C48       1.0  0.888412457117161  0.8660125173198968  0.8512063808582978  1.0000
  C   C49       1.0  0.3662449677281773  0.831551311413163  0.28757857132854664  1.0000
  C   C50       1.0  0.6337550326376963  0.831551311413163  0.21242142908674705  1.0000
  C   C51       1.0  0.8662449674601166  0.3315513132742893  0.2875785713341432  1.0000
  C   C52       1.0  0.13375503258135063  0.3315513132742893  0.2124214290811921  1.0000
  C   C53       1.0  0.6337550324188459  0.16844868719308317  0.7124214289099604  1.0000
  C   C54       1.0  0.3662449675093269  0.16844868719308317  0.78757857115176  1.0000
  C   C55       1.0  0.13375503236250016  0.6684486876604556  0.7124214289044053  1.0000
  C   C56       1.0  0.8662449675656726  0.6684486876604556  0.7875785711573149  1.0000
  C   C57       1.0  0.3864432206133191  0.8953344281580026  0.23487514897402334  1.0000
  C   C58       1.0  0.613556779428148  0.8953344281580026  0.265124851441312  1.0000
  C   C59       1.0  0.8864432206696649  0.39533442769063004  0.2348751489795783  1.0000
  C   C60       1.0  0.1135567793718023  0.39533442769063004  0.265124851435757  1.0000
  C   C61       1.0  0.6135567795337039  0.1046655727767424  0.7651248512644837  1.0000
  C   C62       1.0  0.3864432207188751  0.1046655727767424  0.7348751487971951  1.0000
  C   C63       1.0  0.11355677947735829  0.604665570915616  0.7651248512589288  1.0000
  C   C64       1.0  0.8864432207752209  0.604665570915616  0.7348751488027501  1.0000
  C   C65       1.0  0.4298025428127779  0.7631239151758828  0.24284729876917582  1.0000
  C   C66       1.0  0.5701974570810631  0.7631239151758828  0.2571527010651474  1.0000
  C   C67       1.0  0.9298025428691237  0.2631239147085104  0.24284729877473082  1.0000
  C   C68       1.0  0.07019745702471734  0.2631239147085104  0.2571527010595925  1.0000
  C   C69       1.0  0.570197457186619  0.23687608575886213  0.7571527008883192  1.0000
  C   C70       1.0  0.4298025427415537  0.23687608575886213  0.7428472991734012  1.0000
  C   C71       1.0  0.07019745713027331  0.7368760838977357  0.7571527008827642  1.0000
  C   C72       1.0  0.9298025427978994  0.7368760838977357  0.7428472991789562  1.0000
  C   C73       1.0  0.4511872767456241  0.5680326439615948  0.3060591256054933  1.0000
  C   C74       1.0  0.5488127232958431  0.5680326439615948  0.19394087480984196  1.0000
  C   C75       1.0  0.9511872766543435  0.06803264349422235  0.3060591250300363  1.0000
  C   C76       1.0  0.04881272356390376  0.06803264349422235  0.19394087480424538  1.0000
  C   C77       1.0  0.548812723401399  0.4319673569731501  0.6939408746330137  1.0000
  C   C78       1.0  0.45118727652677365  0.4319673569731501  0.8060591254287066  1.0000
  C   C79       1.0  0.048812723345053315  0.9319673574405226  0.6939408746274587  1.0000
  C   C80       1.0  0.9511872765831193  0.9319673574405226  0.8060591254342617  1.0000
  N   N1        1.0  0.4637579023155288  0.3031063709971038  0.4134538167446009  1.0000
  N   N2        1.0  0.5362420975783122  0.3031063709971038  0.08654618308972234  1.0000
  N   N3        1.0  0.9637579023718744  0.8031063714644763  0.4134538167501559  1.0000
  N   N4        1.0  0.036242097521966464  0.8031063714644763  0.0865461830841674  1.0000
  N   N5        1.0  0.5362420978314942  0.6968936276091422  0.5865461834939061  1.0000
  N   N6        1.0  0.46375790209667833  0.6968936276091422  0.9134538165678142  1.0000
  N   N7        1.0  0.03624209777514862  0.19689362947026862  0.5865461834883512  1.0000
  N   N8        1.0  0.963757902153024  0.19689362947026862  0.9134538165733692  1.0000
  O   O1        1.0  0.49385110180163  0.40512658742705676  0.3284742250527051  1.0000
  O   O2        1.0  0.5061488982398372  0.40512658742705676  0.1715257753626302  1.0000
  O   O3        1.0  0.9938511018579755  0.9051265855659303  0.32847422505826007  1.0000
  O   O4        1.0  0.006148898183491469  0.9051265855659303  0.17152577535707522  1.0000
  O   O5        1.0  0.5061488983453932  0.5948734135076882  0.6715257751858019  1.0000
  O   O6        1.0  0.49385110190718595  0.5948734135076882  0.8284742248758767  1.0000
  O   O7        1.0  0.00614889828904747  0.0948734130403157  0.671525775180247  1.0000
  O   O8        1.0  0.9938511016391253  0.0948734130403157  0.8284742248814735  1.0000
  F   F1        1.0  0.7106411540762017  0.7955002111304487  0.6055900784643172  1.0000
  F   F2        1.0  0.28935884585197097  0.7955002111304487  0.8944099215974031  1.0000
  F   F3        1.0  0.21064115434426245  0.29550021066307613  0.6055900784587207  1.0000
  F   F4        1.0  0.7893588459083166  0.29550021066307613  0.8944099216029581  1.0000
  F   F5        1.0  0.289358845746415  0.20449978980429634  0.3944099217742314  1.0000
  F   F6        1.0  0.7106411542950521  0.20449978980429634  0.10559007864110391  1.0000
  F   F7        1.0  0.7893588458027607  0.7044997902716689  0.39440992177978634  1.0000
  F   F8        1.0  0.21064115423870647  0.7044997902716689  0.10559007863554895  1.0000
  F   F9        1.0  0.7064655215148372  0.4130161190888764  0.3659617298550784  1.0000
  F   F10       1.0  0.29353447837900387  0.4130161190888764  0.13403826997924484  1.0000
  F   F11       1.0  0.20646552145849137  0.913016119556249  0.36596172984952346  1.0000
  F   F12       1.0  0.7935344784353495  0.913016119556249  0.1340382699847998  1.0000
  F   F13       1.0  0.2935344784845598  0.5869838818458685  0.6340382698024165  1.0000
  F   F14       1.0  0.7064655217680192  0.5869838818458685  0.8659617302592622  1.0000
  F   F15       1.0  0.7935344782164991  0.08698388137849603  0.6340382698080131  1.0000
  F   F16       1.0  0.20646552171167354  0.08698388137849603  0.8659617302537073  1.0000
  S   S1        1.0  0.5483510841039505  0.019643176938958576  0.4399481485344946  1.0000
  S   S2        1.0  0.45164891578989047  0.019643176938958576  0.06005185129982869  1.0000
  S   S3        1.0  0.048351084047604784  0.519643177406331  0.4399481485289396  1.0000
  S   S4        1.0  0.9516489158462362  0.519643177406331  0.06005185130538366  1.0000
  S   S5        1.0  0.4516489160430726  0.9803568239957864  0.5600518517040125  1.0000
  S   S6        1.0  0.5483510838851001  0.9803568239957864  0.9399481483577079  1.0000
  S   S7        1.0  0.9516489160994184  0.48035682352841386  0.5600518517095674  1.0000
  S   S8        1.0  0.04835108415316072  0.48035682352841386  0.9399481483521113  1.0000
  I   I1        1.0  0.6399206395573257  0.3872694459669535  0.46038896786815364  1.0000
  I   I2        1.0  0.3600793604841415  0.3872694459669535  0.039611032547181686  1.0000
  I   I3        1.0  0.13992063950097994  0.887269446434326  0.46038896786259864  1.0000
  I   I4        1.0  0.8600793605404872  0.887269446434326  0.03961103255273665  1.0000
  I   I5        1.0  0.3600793605896975  0.6127305549677915  0.5396110323703533  1.0000
  I   I6        1.0  0.6399206396628817  0.6127305549677915  0.9603889676913254  1.0000
  I   I7        1.0  0.8600793603216368  0.11273055450041897  0.53961103237595  1.0000
  I   I8        1.0  0.13992063960653592  0.11273055450041897  0.9603889676857704  1.0000
