data_image0
_chemical_formula_structural       H20C52N4O4F16S4I8
_chemical_formula_sum              "H20 C52 N4 O4 F16 S4 I8"
_cell_length_a       15.124169212412681
_cell_length_b       4.37303257526341
_cell_length_c       23.009983230132097
_cell_angle_alpha    90.0
_cell_angle_beta     99.86561136236045
_cell_angle_gamma    90.0

_space_group_name_H-M_alt    "P 1"
_space_group_IT_number       1

loop_
  _space_group_symop_operation_xyz
  'x, y, z'

loop_
  _atom_site_type_symbol
  _atom_site_label
  _atom_site_symmetry_multiplicity
  _atom_site_fract_x
  _atom_site_fract_y
  _atom_site_fract_z
  _atom_site_occupancy
  H   H1        1.0  0.025268026897711952  0.7684443328889642  0.45573074683904785  1.0000
  H   H2        1.0  0.9747319727551768  0.26844433234739606  0.04426925298807947  1.0000
  H   H3        1.0  0.9747319730699675  0.23155566819417206  0.5442692531820962  1.0000
  H   H4        1.0  0.025268027212502913  0.7315556687357402  0.9557307470330645  1.0000
  H   H5        1.0  0.09857846158943771  0.36280596421224537  0.3708220916404463  1.0000
  H   H6        1.0  0.901421538724602  0.8628059647538135  0.12917790818651945  1.0000
  H   H7        1.0  0.9014215383782418  0.6371940368708909  0.6291779083806976  1.0000
  H   H8        1.0  0.09857846124307748  0.13719403632932275  0.8708220918346246  1.0000
  H   H9        1.0  0.04133196309940358  0.9984843046217164  0.2889766951732467  1.0000
  H   H10       1.0  0.9586680372146362  0.4984843040801484  0.2110233046537191  1.0000
  H   H11       1.0  0.9586680368682761  0.0015156941746771121  0.7110233048478974  1.0000
  H   H12       1.0  0.04133196275304334  0.5015156947162452  0.7889766953674249  1.0000
  H   H13       1.0  0.8795060559453473  0.8960594307404557  0.2599419694658988  1.0000
  H   H14       1.0  0.12049394382277127  0.39605943019888756  0.2400580308023455  1.0000
  H   H15       1.0  0.12049394402233235  0.10394056805593793  0.7400580305552452  1.0000
  H   H16       1.0  0.8795060561449083  0.6039405685975061  0.7599419692187985  1.0000
  H   H17       1.0  0.7668729077132237  0.15019462780023707  0.3124386996271141  1.0000
  H   H18       1.0  0.2331270926008161  0.6501946283418052  0.1875613001998516  1.0000
  H   H19       1.0  0.23312709225445583  0.8498053709961566  0.6875613003940297  1.0000
  H   H20       1.0  0.7668729073668634  0.34980537274133106  0.8124386998212924  1.0000
  C   C1        1.0  0.6462390855166056  0.24814092081960704  0.11517534522783342  1.0000
  C   C2        1.0  0.35376091413628297  0.7481409213611752  0.3848246545992939  1.0000
  C   C3        1.0  0.3537609144510739  0.7518590779767866  0.8848246547933105  1.0000
  C   C4        1.0  0.6462390858313966  0.25185907743521846  0.6151753454218502  1.0000
  C   C5        1.0  0.5551268884064688  0.3034985006760567  0.09558115549697224  1.0000
  C   C6        1.0  0.444873111907571  0.8034984989308822  0.4044188443299935  1.0000
  C   C7        1.0  0.4448731115612108  0.6965015004070795  0.9044188445241718  1.0000
  C   C8        1.0  0.5551268880601086  0.19650149986551144  0.5955811556911504  1.0000
  C   C9        1.0  0.5037055217482836  0.4880462844188724  0.12650758118907743  1.0000
  C   C10       1.0  0.49629447790460485  0.9880462849604404  0.37349241863804983  1.0000
  C   C11       1.0  0.4962944782193958  0.5119537143775212  0.8734924188320665  1.0000
  C   C12       1.0  0.5037055220630747  0.011953716122695765  0.6265075813830941  1.0000
  C   C13       1.0  0.5465904645622087  0.6229165283169467  0.17874758914490813  1.0000
  C   C14       1.0  0.4534095357518311  0.12291652777537851  0.3212524106820576  1.0000
  C   C15       1.0  0.4534095360666222  0.37708347047944696  0.8212524108760745  1.0000
  C   C16       1.0  0.5465904642158484  0.877083471021015  0.6787475893390863  1.0000
  C   C17       1.0  0.6374754218530763  0.5715943425940376  0.19980199582598515  1.0000
  C   C18       1.0  0.36252457846096364  0.07159434205246946  0.3001980040009806  1.0000
  C   C19       1.0  0.3625245781146033  0.4284056584890987  0.8001980041951587  1.0000
  C   C20       1.0  0.6374754220526372  0.9284056590306669  0.6998019955788848  1.0000
  C   C21       1.0  0.6865094782374019  0.3856131874111241  0.1677719294611152  1.0000
  C   C22       1.0  0.31349052207663786  0.8856131879526923  0.33222807036585056  1.0000
  C   C23       1.0  0.3134905217302776  0.6143868136720122  0.8322280705600288  1.0000
  C   C24       1.0  0.6865094778910418  0.114386813130444  0.6677719296552934  1.0000
  C   C25       1.0  0.8855818290338374  0.7203330333779316  0.444998570698194  1.0000
  C   C26       1.0  0.1144181712802024  0.2203330328363635  0.05500142912877173  1.0000
  C   C27       1.0  0.11441817093384217  0.27966696770520466  0.5550014293229499  1.0000
  C   C28       1.0  0.8855818293486283  0.7796669682467728  0.9449985708922107  1.0000
  C   C29       1.0  0.9635626324087279  0.4549142353187642  0.3866960050316627  1.0000
  C   C30       1.0  0.03643736802054193  0.9549142358603324  0.11330399523642011  1.0000
  C   C31       1.0  0.03643736755895179  0.5450857634776295  0.6133039949894813  1.0000
  C   C32       1.0  0.9635626319471376  0.04508576293606136  0.886696004784724  1.0000
  C   C33       1.0  0.027150422139865574  0.3173508466070383  0.3580468357485485  1.0000
  C   C34       1.0  0.9728495781741742  0.8173508448618638  0.14195316407841727  1.0000
  C   C35       1.0  0.972849577827814  0.682649154476098  0.6419531642725955  1.0000
  C   C36       1.0  0.02715042245465652  0.18264915393452985  0.8580468359425651  1.0000
  C   C37       1.0  0.9942526677344973  0.11534566489471366  0.3123046971228848  1.0000
  C   C38       1.0  0.005747332579542514  0.6153456654362818  0.18769530270408102  1.0000
  C   C39       1.0  0.005747332233182276  0.8846543361884226  0.6876953028982592  1.0000
  C   C40       1.0  0.994252667388137  0.3846543356468545  0.8123046973170631  1.0000
  C   C41       1.0  0.902199955454708  0.055462632812743363  0.2957917365748113  1.0000
  C   C42       1.0  0.09780004419818061  0.5554626310675689  0.204208263252316  1.0000
  C   C43       1.0  0.09780004451297157  0.9445373682703928  0.7042082634463327  1.0000
  C   C44       1.0  0.902199955769499  0.4445373677288248  0.795791736768828  1.0000
  C   C45       1.0  0.8383586481722658  0.19501327175652966  0.3245325432812983  1.0000
  C   C46       1.0  0.16164135148062275  0.6950132722980978  0.17546745654582893  1.0000
  C   C47       1.0  0.16164135179541375  0.804986727039864  0.6754674567398457  1.0000
  C   C48       1.0  0.8383586484870567  0.30498672878503846  0.824532543475315  1.0000
  C   C49       1.0  0.8720912913541294  0.3925367626369904  0.3698663516724153  1.0000
  C   C50       1.0  0.1279087090751402  0.892536760891816  0.13013364859566745  1.0000
  C   C51       1.0  0.12790870861355008  0.6074632384461458  0.6301336483487286  1.0000
  C   C52       1.0  0.8720912908925395  0.10746323790457772  0.8698663514254766  1.0000
  N   N1        1.0  0.9686822255241717  0.6603072811151124  0.4334739199793019  1.0000
  N   N2        1.0  0.03131777424394687  0.1603072805735442  0.06652608028894243  1.0000
  N   N3        1.0  0.03131777444350789  0.3396927176812813  0.566526080041842  1.0000
  N   N4        1.0  0.9686822257237326  0.8396927182228494  0.9334739197322015  1.0000
  O   O1        1.0  0.824647087521425  0.557853194096789  0.4057953405758952  1.0000
  O   O2        1.0  0.17535291279261467  0.05785319355522086  0.09420465925107051  1.0000
  O   O3        1.0  0.17535291244625445  0.4421468069863473  0.5942046594452487  1.0000
  O   O4        1.0  0.824647087175065  0.9421468075279155  0.9057953407700735  1.0000
  F   F1        1.0  0.5151773426488844  0.17681139728382336  0.04438656343771647  1.0000
  F   F2        1.0  0.4848226576651555  0.6768113955386489  0.4556134363892493  1.0000
  F   F3        1.0  0.48482265720356527  0.8231886037993129  0.9556134361423105  1.0000
  F   F4        1.0  0.5151773423025241  0.32318860325774473  0.5443865636318947  1.0000
  F   F5        1.0  0.5012557066857309  0.8108999804984076  0.20963449985410518  1.0000
  F   F6        1.0  0.4987442930823876  0.3108999799568394  0.29036550041413917  1.0000
  F   F7        1.0  0.4987442932819487  0.18910002058472872  0.7903655001670389  1.0000
  F   F8        1.0  0.5012557068852921  0.6891000188395542  0.7096344996070049  1.0000
  F   F9        1.0  0.6782549907865162  0.707556279709081  0.250217954441364  1.0000
  F   F10       1.0  0.3217450095275235  0.20755627916751287  0.24978204538560175  1.0000
  F   F11       1.0  0.32174500918116333  0.29244371908731265  0.74978204557978  1.0000
  F   F12       1.0  0.6782549904401561  0.7924437196288808  0.7502179546355422  1.0000
  F   F13       1.0  0.7753886134883501  0.34831010375180016  0.1880374996440647  1.0000
  F   F14       1.0  0.22461138682568968  0.8483101020066256  0.31196250018290106  1.0000
  F   F15       1.0  0.22461138636409958  0.6516898973313362  0.8119624999359624  1.0000
  F   F16       1.0  0.775388613803141  0.15168989678976802  0.6880374998380814  1.0000
  S   S1        1.0  0.8537616449407516  0.9441928064648113  0.4961049331479234  1.0000
  S   S2        1.0  0.146238354827367  0.4441928059232432  0.003895067120320897  1.0000
  S   S3        1.0  0.14623835502692809  0.05580719461832498  0.5038950668732206  1.0000
  S   S4        1.0  0.8537616451403125  0.5558071951598931  0.9961049329008231  1.0000
  I   I1        1.0  0.7214278641577968  0.9877219333861982  0.0644379373316827  1.0000
  I   I2        1.0  0.27857213549509174  0.4877219351313726  0.43556206249544455  1.0000
  I   I3        1.0  0.2785721358098828  0.01227806541019554  0.9355620626894613  1.0000
  I   I4        1.0  0.7214278644725878  0.5122780659517636  0.5644379375256994  1.0000
  I   I5        1.0  0.36797960918409656  0.5593527392950328  0.09396818338865195  1.0000
  I   I6        1.0  0.6320203904687921  0.059352738753464675  0.40603181643847536  1.0000
  I   I7        1.0  0.632020390783583  0.44064726178810343  0.9060318166324921  1.0000
  I   I8        1.0  0.3679796094988875  0.9406472600429291  0.5939681835826687  1.0000
