data_image0
_chemical_formula_structural       H20C52N4O4F12S4I12
_chemical_formula_sum              "H20 C52 N4 O4 F12 S4 I12"
_cell_length_a       14.855151814038685
_cell_length_b       4.6023383989676185
_cell_length_c       23.34899149588791
_cell_angle_alpha    90.0
_cell_angle_beta     92.52902938713048
_cell_angle_gamma    90.0

_space_group_name_H-M_alt    "P 1"
_space_group_IT_number       1

loop_
  _space_group_symop_operation_xyz
  'x, y, z'

loop_
  _atom_site_type_symbol
  _atom_site_label
  _atom_site_symmetry_multiplicity
  _atom_site_fract_x
  _atom_site_fract_y
  _atom_site_fract_z
  _atom_site_occupancy
  H   H1        1.0  0.03378057014384588  0.21905690599069166  0.45879446633931914  1.0000
  H   H2        1.0  0.9662194299098332  0.71905690610285  0.041205533607262375  1.0000
  H   H3        1.0  0.9662194295905557  0.7809430942336251  0.5412055337869179  1.0000
  H   H4        1.0  0.03378056979470028  0.28094309412146673  0.9587944660902732  1.0000
  H   H5        1.0  0.12493760907907314  0.631239619548984  0.38121325047234567  1.0000
  H   H6        1.0  0.875062390974606  0.13123961943682572  0.11878674947423584  1.0000
  H   H7        1.0  0.8750623913284895  0.3687603806753327  0.6187867496538052  1.0000
  H   H8        1.0  0.12493760872992754  0.8687603807874911  0.8812132502232994  1.0000
  H   H9        1.0  0.08383063592061465  0.9811137140660677  0.30224920777076586  1.0000
  H   H10       1.0  0.9161693634599034  0.4811137139539094  0.19775079217590175  1.0000
  H   H11       1.0  0.9161693637839189  0.018886286158249  0.6977507919267696  1.0000
  H   H12       1.0  0.08383063627449827  0.5188862862704073  0.8022492079503353  1.0000
  H   H13       1.0  0.9252987653719221  0.05116541627030777  0.26846737392351433  1.0000
  H   H14       1.0  0.07470123468175709  0.5511654163824661  0.2315326260230672  1.0000
  H   H15       1.0  0.0747012350356407  0.9488345839540089  0.7315326262026366  1.0000
  H   H16       1.0  0.9252987650227765  0.44883458384185054  0.7684673736744682  1.0000
  H   H17       1.0  0.8003116893422183  0.7766870469155066  0.3133589824861064  1.0000
  H   H18       1.0  0.19968831074132895  0.2766870468033482  0.18664101788917664  1.0000
  H   H19       1.0  0.19968831039218335  0.22331295330881018  0.6866410176401307  1.0000
  H   H20       1.0  0.8003116896662339  0.7233129534209686  0.8133589822369743  1.0000
  C   C1        1.0  0.6349616115203262  0.7265941615136606  0.6042528137459193  1.0000
  C   C2        1.0  0.36503838853809106  0.22659416140150224  0.8957471861311855  1.0000
  C   C3        1.0  0.3650383882140755  0.2734058387106561  0.39574718638031775  1.0000
  C   C4        1.0  0.6349616118694718  0.7734058388228144  0.10425281399496533  1.0000
  C   C5        1.0  0.6725870346826864  0.8549015367671756  0.6538745552359969  1.0000
  C   C6        1.0  0.3274129654055988  0.35490153665501734  0.8461254450698096  1.0000
  C   C7        1.0  0.3274129650517152  0.14509846345714103  0.34612544489024005  1.0000
  C   C8        1.0  0.6725870350019639  0.6450984635692993  0.15387455505634134  1.0000
  C   C9        1.0  0.6241710116086333  0.04668406174743599  0.6870970695127268  1.0000
  C   C10       1.0  0.3758289884497839  0.5466840618595944  0.812902930364378  1.0000
  C   C11       1.0  0.3758289880959003  0.9533159384768807  0.3129029301848087  1.0000
  C   C12       1.0  0.6241710119577789  0.4533159383647224  0.1870970697617728  1.0000
  C   C13       1.0  0.5355025309239193  0.11163716038682686  0.6689926447577754  1.0000
  C   C14       1.0  0.46449746846133677  0.6116371604989852  0.8310073551194155  1.0000
  C   C15       1.0  0.4644974688104824  0.8883628398374899  0.3310073553684616  1.0000
  C   C16       1.0  0.5355025312431968  0.3883628397253315  0.16899264457811988  1.0000
  C   C17       1.0  0.49463566006894905  0.9897605380390564  0.6197218429768243  1.0000
  C   C18       1.0  0.5053643400193362  0.48976054009970665  0.8802781573289822  1.0000
  C   C19       1.0  0.5053643403386138  0.010239460012451719  0.38027815714932656  1.0000
  C   C20       1.0  0.4946356597150654  0.5102394601246101  0.11972184279725491  1.0000
  C   C21       1.0  0.5461336815463916  0.798595783574814  0.5881736351080763  1.0000
  C   C22       1.0  0.4538663185120255  0.2985957834626556  0.9118263647690285  1.0000
  C   C23       1.0  0.4538663188611712  0.20140421664950275  0.41182636501807457  1.0000
  C   C24       1.0  0.546133681222376  0.7014042167616611  0.08817363535720849  1.0000
  C   C25       1.0  0.8939396267175432  0.23719498336864486  0.4430891041114559  1.0000
  C   C26       1.0  0.10606037336600399  0.7371949834808033  0.05691089626382711  1.0000
  C   C27       1.0  0.10606037369001953  0.7628050168556718  0.5569108960146949  1.0000
  C   C28       1.0  0.8939396263683976  0.2628050167435135  0.9430891038624098  1.0000
  C   C29       1.0  0.984715968208436  0.5157794677880446  0.3911521045870879  1.0000
  C   C30       1.0  0.015284031845243138  0.015779467675886335  0.10884789535949363  1.0000
  C   C31       1.0  0.015284032199126761  0.484220532436272  0.608847895539063  1.0000
  C   C32       1.0  0.9847159678592905  0.9842205303756218  0.8911521043380418  1.0000
  C   C33       1.0  0.055039209954233524  0.6638869733449815  0.3665258837529267  1.0000
  C   C34       1.0  0.9449607900994456  0.16388697323282309  0.13347411619365473  1.0000
  C   C35       1.0  0.9449607897801682  0.33611302687933525  0.6334741163733102  1.0000
  C   C36       1.0  0.055039210308117134  0.8361130269914936  0.866525883932496  1.0000
  C   C37       1.0  0.030969345457824596  0.8576495854553897  0.32223833322997075  1.0000
  C   C38       1.0  0.9690306545958546  0.3576495853432313  0.1777616667166107  1.0000
  C   C39       1.0  0.9690306549497381  0.142350414768927  0.6777616668961801  1.0000
  C   C40       1.0  0.03096934513854707  0.6423504148810854  0.8222383334096263  1.0000
  C   C41       1.0  0.9408926007025685  0.8988759759447464  0.3032310818233815  1.0000
  C   C42       1.0  0.05910739935111069  0.39887597583258805  0.19676891812319997  1.0000
  C   C43       1.0  0.05910739903183316  0.10112402427957026  0.6967689183028555  1.0000
  C   C44       1.0  0.940892601026584  0.6011240243917286  0.8032310815742494  1.0000
  C   C45       1.0  0.870362544689557  0.748930031040999  0.32793451089947956  1.0000
  C   C46       1.0  0.12963745536412216  0.24893003092884058  0.17206548904710192  1.0000
  C   C47       1.0  0.1296374557180058  0.25106996918331775  0.6720654892266713  1.0000
  C   C48       1.0  0.8703625443702795  0.7510699692954761  0.8279345110791352  1.0000
  C   C49       1.0  0.8952627687470722  0.560197909518852  0.371948042011328  1.0000
  C   C50       1.0  0.10473723130660699  0.06019790940669361  0.12805195793525348  1.0000
  C   C51       1.0  0.10473723098732944  0.4398020907054647  0.628051958114909  1.0000
  C   C52       1.0  0.8952627691009558  0.939802090817623  0.8719480421908974  1.0000
  N   N1        1.0  0.9805361510893894  0.3133736668132706  0.4354031801515637  1.0000
  N   N2        1.0  0.01946384896428975  0.813373666925429  0.06459681979501777  1.0000
  N   N3        1.0  0.019463848615144146  0.6866263312382376  0.5645968195459717  1.0000
  N   N4        1.0  0.980536151443273  0.1866263332988877  0.9354031803311331  1.0000
  O   O1        1.0  0.8399097498507472  0.3873752613236608  0.4040443306730226  1.0000
  O   O2        1.0  0.16009025020293202  0.8873752614358191  0.09595566927355886  1.0000
  O   O3        1.0  0.16009024988365447  0.6126247389006559  0.5959556694532143  1.0000
  O   O4        1.0  0.8399097501747627  0.11262473878849753  0.9040443304238904  1.0000
  F   F1        1.0  0.7598860865842976  0.7977663204477966  0.6694380344269417  1.0000
  F   F2        1.0  0.24011391347411964  0.29776632033563816  0.8305619654501631  1.0000
  F   F3        1.0  0.24011391382326522  0.2022336797765202  0.33056196569920915  1.0000
  F   F4        1.0  0.759886086260282  0.7022336798886786  0.1694380346760739  1.0000
  F   F5        1.0  0.48842072038780787  0.301861351679754  0.6999373713077446  1.0000
  F   F6        1.0  0.5115792797004775  0.8018613517919123  0.8000626289980619  1.0000
  F   F7        1.0  0.511579280019755  0.6981386485445628  0.30006262881840634  1.0000
  F   F8        1.0  0.48842072003392417  0.19813864843240442  0.19993737112817508  1.0000
  F   F9        1.0  0.5086495949376276  0.6820330032020502  0.5399271225674928  1.0000
  F   F10       1.0  0.49135040444762834  0.18203300308989176  0.9600728773096983  1.0000
  F   F11       1.0  0.4913504047967739  0.3179669948494581  0.4600728775587442  1.0000
  F   F12       1.0  0.5086495952569052  0.8179669949616165  0.03992712238783724  1.0000
  S   S1        1.0  0.8509522190474696  0.006366115974125731  0.4894600521631762  1.0000
  S   S2        1.0  0.14904778100620952  0.5063661160862841  0.010539947783405319  1.0000
  S   S3        1.0  0.14904778065706392  0.993633884250191  0.5105399475343593  1.0000
  S   S4        1.0  0.8509522194013532  0.4936338841380326  0.9894600523427456  1.0000
  I   I1        1.0  0.7107619424758079  0.44858622531170506  0.5534577991000048  1.0000
  I   I2        1.0  0.28923805758260923  0.9485862254238634  0.9465422007770998  1.0000
  I   I3        1.0  0.2892380579018868  0.5514137749126117  0.4465422005974444  1.0000
  I   I4        1.0  0.7107619421517923  0.05141377480045331  0.05345779934913707  1.0000
  I   I5        1.0  0.679420448253924  0.23373396233560367  0.7621684415426654  1.0000
  I   I6        1.0  0.3205795518343612  0.733733962447762  0.737831558763141  1.0000
  I   I7        1.0  0.3205795514804776  0.766266037888713  0.2378315585835717  1.0000
  I   I8        1.0  0.6794204485732016  0.26626603777655466  0.26216844136300976  1.0000
  I   I9        1.0  0.3620125025083539  0.0825570714411679  0.5920077693163073  1.0000
  I   I10       1.0  0.6379874975500633  0.5825570715533263  0.9079922305607975  1.0000
  I   I11       1.0  0.637987497869341  0.9174429287831488  0.40799223038114196  1.0000
  I   I12       1.0  0.3620125021843382  0.4174429286709905  0.09200776956543946  1.0000
