data_image0
_chemical_formula_structural       H10C26N2F8S4I4
_chemical_formula_sum              "H10 C26 N2 F8 S4 I4"
_cell_length_a       7.160997855035828
_cell_length_b       8.2419431979884
_cell_length_c       14.305785369765223
_cell_angle_alpha    98.07257251216369
_cell_angle_beta     90.93368819671618
_cell_angle_gamma    109.25751090680382

_space_group_name_H-M_alt    "P 1"
_space_group_IT_number       1

loop_
  _space_group_symop_operation_xyz
  'x, y, z'

loop_
  _atom_site_type_symbol
  _atom_site_label
  _atom_site_symmetry_multiplicity
  _atom_site_fract_x
  _atom_site_fract_y
  _atom_site_fract_z
  _atom_site_occupancy
  H   H1        1.0  0.9553014293194323  0.8571569398012104  0.04530418097874551  1.0000
  H   H2        1.0  0.04469856970786832  0.1428430592758793  0.9546958186263945  1.0000
  H   H3        1.0  0.551599903172091  0.16991362425193973  0.924744614196469  1.0000
  H   H4        1.0  0.448400096444557  0.8300863763116242  0.07525538611606238  1.0000
  H   H5        1.0  0.6430747393055949  0.10696608958585818  0.08175492815265546  1.0000
  H   H6        1.0  0.35692526160432203  0.8930339107777309  0.9182450714501664  1.0000
  H   H7        1.0  0.8396262264978197  0.34449249057779163  0.2061093596792105  1.0000
  H   H8        1.0  0.1603737725294809  0.6555075084992982  0.7938906399259295  1.0000
  H   H9        1.0  0.9550968240544875  0.6520726459137645  0.17722336869789682  1.0000
  H   H10       1.0  0.044903175458543575  0.3479273544484841  0.8227766309070347  1.0000
  C   C1        1.0  0.42606646295960576  0.15559654385398117  0.6460336564293588  1.0000
  C   C2        1.0  0.5739335366570422  0.8444034567095827  0.3539663438831726  1.0000
  C   C3        1.0  0.36700684043658277  0.1739749988655289  0.5557815870732365  1.0000
  C   C4        1.0  0.6329931585907179  0.8260250002115609  0.44421841253190353  1.0000
  C   C5        1.0  0.5020094983846719  0.2422679166457224  0.49021293158783036  1.0000
  C   C6        1.0  0.4979905020395146  0.7577320824327078  0.5097870680152  1.0000
  C   C7        1.0  0.703922496150326  0.2949602701447902  0.517233254305747  1.0000
  C   C8        1.0  0.2960775042738606  0.70503972893364  0.4827667452972834  1.0000
  C   C9        1.0  0.7685810152734455  0.2821770428599454  0.6076983431777427  1.0000
  C   C10       1.0  0.23141898434320238  0.7178229577036186  0.3923016571347887  1.0000
  C   C11       1.0  0.6288095819474994  0.2109928304949365  0.6704889643474937  1.0000
  C   C12       1.0  0.37119041896241745  0.7890071698686527  0.32951103525532827  1.0000
  C   C13       1.0  0.7955394917658887  0.742235747150217  0.9161978955745685  1.0000
  C   C14       1.0  0.2044605087619148  0.25776425212952864  0.08380210473606176  1.0000
  C   C15       1.0  0.700117339273004  0.44698606421346476  0.9643514469770402  1.0000
  C   C16       1.0  0.2998826616369128  0.5530139361501244  0.03564855262578165  1.0000
  C   C17       1.0  0.6373993818101545  0.27427805459500826  0.979934124208613  1.0000
  C   C18       1.0  0.3626006173207631  0.7257219446833968  0.020065876104126957  1.0000
  C   C19       1.0  0.6897879991082686  0.24039345287392577  0.06762555751289501  1.0000
  C   C20       1.0  0.3102120018016484  0.7596065474896634  0.9323744420899269  1.0000
  C   C21       1.0  0.8022051217541668  0.37514974042791377  0.13817052095342675  1.0000
  C   C22       1.0  0.1977948792593669  0.6248502601369905  0.861829479356995  1.0000
  C   C23       1.0  0.866955496552376  0.5476039117562844  0.12273509644233824  1.0000
  C   C24       1.0  0.133044503064272  0.4523960888072795  0.8772649038701932  1.0000
  C   C25       1.0  0.8147341890894368  0.5822741851668147  0.03506595877207614  1.0000
  C   C26       1.0  0.18526581004148088  0.4177258141115903  0.9649340415406638  1.0000
  N   N1        1.0  0.8630740416545177  0.7427731808916848  0.004867667223895128  1.0000
  N   N2        1.0  0.13692595935901586  0.25722681967321964  0.9951323330865266  1.0000
  F   F1        1.0  0.17129875970553085  0.1195657567847592  0.5301264307130469  1.0000
  F   F2        1.0  0.8287012413080029  0.8804342437801452  0.4698735695973748  1.0000
  F   F3        1.0  0.8402169768329107  0.3575107561251932  0.4558394523540035  1.0000
  F   F4        1.0  0.15978302407700612  0.6424892442383959  0.5441605472488182  1.0000
  F   F5        1.0  0.9637190746849913  0.33693510201932236  0.6346851634346088  1.0000
  F   F6        1.0  0.03628092573919528  0.663064897059108  0.3653148361684216  1.0000
  F   F7        1.0  0.6959301556353448  0.19641010892080077  0.7570727266173642  1.0000
  F   F8        1.0  0.3040698439813033  0.8035898916427631  0.24292727369516712  1.0000
  S   S1        1.0  0.8296020442330391  0.9150815538356348  0.8607373927630333  1.0000
  S   S2        1.0  0.1703979548978786  0.08491844544277026  0.13926260754970674  1.0000
  S   S3        1.0  0.6597325945882021  0.5319281049227268  0.8641893230476044  1.0000
  S   S4        1.0  0.3402674049248291  0.46807189543952193  0.1358106765573271  1.0000
  I   I1        1.0  0.21292186414932474  0.041399680840323236  0.7384456797860809  1.0000
  I   I2        1.0  0.7870781363784786  0.9586003184394222  0.26155432052454936  1.0000
  I   I3        1.0  0.3992232365698046  0.24262661556813062  0.3518555212564865  1.0000
  I   I4        1.0  0.6007767625611131  0.7573733837102744  0.6481444790562534  1.0000
