data_image0
_chemical_formula_structural       H20C52N4F12S8I12
_chemical_formula_sum              "H20 C52 N4 F12 S8 I12"
_cell_length_a       15.168591807055565
_cell_length_b       4.716823695242893
_cell_length_c       23.140229869605914
_cell_angle_alpha    90.0
_cell_angle_beta     93.27698632536959
_cell_angle_gamma    90.0

_space_group_name_H-M_alt    "P 1"
_space_group_IT_number       1

loop_
  _space_group_symop_operation_xyz
  'x, y, z'

loop_
  _atom_site_type_symbol
  _atom_site_label
  _atom_site_symmetry_multiplicity
  _atom_site_fract_x
  _atom_site_fract_y
  _atom_site_fract_z
  _atom_site_occupancy
  H   H1        1.0  0.020353008070060897  0.8019983265041667  0.46014066091072386  1.0000
  H   H2        1.0  0.9796469921964241  0.30199832599989657  0.039859338807167  1.0000
  H   H3        1.0  0.9796469920882255  0.1980016745043736  0.5398593390961127  1.0000
  H   H4        1.0  0.020353007961862166  0.6980016750086437  0.9601406611996693  1.0000
  H   H5        1.0  0.11974992099341858  0.4609017127760273  0.3974105268570348  1.0000
  H   H6        1.0  0.8802500786506641  0.9609017111602267  0.10258947329315683  1.0000
  H   H7        1.0  0.880250078505563  0.5390982882325129  0.6025894731492473  1.0000
  H   H8        1.0  0.11974992150762227  0.03909828772824279  0.8974105267136797  1.0000
  H   H9        1.0  0.11345657526732127  0.09614765132251703  0.3194782964100531  1.0000
  H   H10       1.0  0.8865434243398591  0.5961476518267872  0.18052170330728334  1.0000
  H   H11       1.0  0.8865434242316603  0.9038523475659525  0.680521703596229  1.0000
  H   H12       1.0  0.11345657581842733  0.4038523470616824  0.8194782966995533  1.0000
  H   H13       1.0  0.9697656675906032  0.9459950611468051  0.27274755225309494  1.0000
  H   H14       1.0  0.030234332053479362  0.44599506276260575  0.2272524478970967  1.0000
  H   H15       1.0  0.03023433190837828  0.054004937741664434  0.7272524477531872  1.0000
  H   H16       1.0  0.9697656681048069  0.5540049382459346  0.7727475521097399  1.0000
  H   H17       1.0  0.829120694792833  0.16096158539182023  0.30217444748432215  1.0000
  H   H18       1.0  0.17087930485124964  0.6609615858960904  0.19782555266586946  1.0000
  H   H19       1.0  0.17087930536545332  0.8390384156167201  0.6978255525225143  1.0000
  H   H20       1.0  0.8291206946477321  0.3390384151124499  0.8021744473404125  1.0000
  C   C1        1.0  0.632882095845908  0.29851873230285997  0.6072795991810669  1.0000
  C   C2        1.0  0.3671179041672772  0.79851873280713  0.89272040068186  1.0000
  C   C3        1.0  0.3671179043123784  0.7014812665856096  0.39272040082576976  1.0000
  C   C4        1.0  0.6328820959910092  0.20148126608133943  0.10727959932497641  1.0000
  C   C5        1.0  0.6702707978235852  0.1800405367825115  0.6582653124081644  1.0000
  C   C6        1.0  0.3297292021896001  0.6800405372867816  0.8417346874547625  1.0000
  C   C7        1.0  0.3297292016753963  0.819959462105958  0.34173468759811765  1.0000
  C   C8        1.0  0.6702707979686864  0.31995946372175865  0.15826531255207402  1.0000
  C   C9        1.0  0.6252284943435007  0.985034671676602  0.691067392455254  1.0000
  C   C10       1.0  0.37477150570658696  0.4850346711723319  0.8089326078405281  1.0000
  C   C11       1.0  0.3747715058147857  0.014965329331938284  0.3089326075515825  1.0000
  C   C12       1.0  0.6252284944516995  0.5149653298362085  0.19106739216630836  1.0000
  C   C13       1.0  0.5400345624481689  0.9071505840499003  0.6710301020534315  1.0000
  C   C14       1.0  0.45996543760191877  0.4071505835456303  0.8289698982423508  1.0000
  C   C15       1.0  0.4599654370508127  0.09284941483856914  0.3289698979528506  1.0000
  C   C16       1.0  0.5400345625563676  0.5928494153428393  0.17103010176448583  1.0000
  C   C17       1.0  0.49977442284640067  0.016949601080199595  0.6201295673257335  1.0000
  C   C18       1.0  0.500225577203687  0.5169496015844698  0.8798704329700485  1.0000
  C   C19       1.0  0.5002255773118857  0.98305039780827  0.3798704326811028  1.0000
  C   C20       1.0  0.49977442295459934  0.4830503994240705  0.12012956703678798  1.0000
  C   C21       1.0  0.5477709725157004  0.21186908915164326  0.5891196668939706  1.0000
  C   C22       1.0  0.45222902687508265  0.7118690896559134  0.9108803334012573  1.0000
  C   C23       1.0  0.45222902698328127  0.788130911856897  0.41088033311231154  1.0000
  C   C24       1.0  0.5477709726238991  0.28813091135262686  0.08911966660502488  1.0000
  C   C25       1.0  0.8828481831241631  0.7841438919436943  0.4469046049088653  1.0000
  C   C26       1.0  0.1171518171792243  0.28414389143942415  0.0530953952418808  1.0000
  C   C27       1.0  0.11715181703412318  0.215856109064846  0.5530953950979711  1.0000
  C   C28       1.0  0.8828481829790622  0.7158561074490454  0.9469046047649557  1.0000
  C   C29       1.0  0.9776387055827394  0.5105563755602677  0.3940294117288487  1.0000
  C   C30       1.0  0.022361294720648052  0.010556375055997493  0.10597058842189744  1.0000
  C   C31       1.0  0.022361294575546965  0.48944362332820185  0.6059705882779879  1.0000
  C   C32       1.0  0.9776387054376384  0.989443623832472  0.8940294115849391  1.0000
  C   C33       1.0  0.05672403764586923  0.3950442141560787  0.37689512068639575  1.0000
  C   C34       1.0  0.9432759626575182  0.8950442146603489  0.12310487946435032  1.0000
  C   C35       1.0  0.9432759625124172  0.6049557847323909  0.6231048793204408  1.0000
  C   C36       1.0  0.056724037500768126  0.10495578422812069  0.8768951205424861  1.0000
  C   C37       1.0  0.05256358071620455  0.19093809906618153  0.3332703979949334  1.0000
  C   C38       1.0  0.9474364195871829  0.6909380995704517  0.1667296021558127  1.0000
  C   C39       1.0  0.9474364194420818  0.8090619019423588  0.6667296020119031  1.0000
  C   C40       1.0  0.05256358057110348  0.3090619014380886  0.833270397851024  1.0000
  C   C41       1.0  0.9712837284471306  0.1058623052847191  0.30676282031260776  1.0000
  C   C42       1.0  0.02871627119695204  0.6058623036689185  0.19323717983758387  1.0000
  C   C43       1.0  0.028716271051850942  0.8941376957238211  0.6932371796936743  1.0000
  C   C44       1.0  0.9712837289613343  0.39413769521955105  0.8067628201692527  1.0000
  C   C45       1.0  0.8921477792475674  0.22385267464308473  0.32322215617043976  1.0000
  C   C46       1.0  0.10785222101891774  0.7238526751473549  0.17677784354745113  1.0000
  C   C47       1.0  0.10785222091071903  0.7761473242453848  0.6767778438363968  1.0000
  C   C48       1.0  0.8921477791393686  0.27614732374111467  0.8232221564593853  1.0000
  C   C49       1.0  0.8960231572995551  0.4258289369657199  0.36740224042359343  1.0000
  C   C50       1.0  0.10397684296692998  0.9258289374699902  0.13259775929429743  1.0000
  C   C51       1.0  0.10397684285873127  0.5741710640428204  0.632597759583243  1.0000
  C   C52       1.0  0.8960231571913565  0.07417106353855024  0.8674022407125391  1.0000
  N   N1        1.0  0.9669704190871353  0.7095879189581721  0.437279921832656  1.0000
  N   N2        1.0  0.03302958117934988  0.20958791845390196  0.06272007788523479  1.0000
  N   N3        1.0  0.033029581071151164  0.2904120820503682  0.5627200781741805  1.0000
  N   N4        1.0  0.9669704189789365  0.7904120804345676  0.9372799221216017  1.0000
  F   F1        1.0  0.7542827920676577  0.2505971680035693  0.6756601289751097  1.0000
  F   F2        1.0  0.24571720794552754  0.7505971685078394  0.8243398708878171  1.0000
  F   F3        1.0  0.2457172080906287  0.7494028308849002  0.32433987103172685  1.0000
  F   F4        1.0  0.754282791553454  0.24940283038063005  0.17566012911846485  1.0000
  F   F5        1.0  0.49604695767560697  0.714221465050226  0.7014542329586123  1.0000
  F   F6        1.0  0.5039530423375783  0.21422146666602665  0.7985457669043144  1.0000
  F   F7        1.0  0.5039530424826795  0.28577853383824353  0.29854576704822416  1.0000
  F   F8        1.0  0.49604695716140323  0.7857785343425137  0.20145423310196753  1.0000
  F   F9        1.0  0.5108005500825878  0.315902449672389  0.5392975464718458  1.0000
  F   F10       1.0  0.4891994499305975  0.8159024480565884  0.9607024533910812  1.0000
  F   F11       1.0  0.48919945007569854  0.6840975513361512  0.46070245353499073  1.0000
  F   F12       1.0  0.5108005502276889  0.18409755083188115  0.039297546615755366  1.0000
  S   S1        1.0  0.8490527027811021  0.010928780325622382  0.4966038705153274  1.0000
  S   S2        1.0  0.15094729748538294  0.5109287808298926  0.003396129202563483  1.0000
  S   S3        1.0  0.1509472973771842  0.989071220682918  0.5033961294915091  1.0000
  S   S4        1.0  0.8490527026729034  0.48907122017864774  0.9966038708042729  1.0000
  S   S5        1.0  0.8101345692413799  0.6028897036936128  0.39860666123727134  1.0000
  S   S6        1.0  0.1898654310251052  0.10288970318934271  0.10139333848061956  1.0000
  S   S7        1.0  0.1898654309169065  0.3971102973149274  0.6013933387695652  1.0000
  S   S8        1.0  0.8101345691331813  0.8971102956991267  0.8986066615262168  1.0000
  I   I1        1.0  0.7043219625698336  0.5840107322175729  0.5579462417054349  1.0000
  I   I2        1.0  0.29567803678404697  0.08401073171330276  0.9420537581569375  1.0000
  I   I3        1.0  0.2956780369291481  0.41598926879096737  0.4420537583008472  1.0000
  I   I4        1.0  0.7043219627149346  0.9159892671751668  0.05794624184934448  1.0000
  I   I5        1.0  0.6816808071213127  0.8048936414199592  0.7670097437088479  1.0000
  I   I6        1.0  0.31831919289187255  0.304893640915689  0.7329902561540792  1.0000
  I   I7        1.0  0.3183191930369736  0.19510635958858114  0.23299025629798867  1.0000
  I   I8        1.0  0.681680807266414  0.6951063600928513  0.2670097438527574  1.0000
  I   I9        1.0  0.37412158738144735  0.8882184305988264  0.5887852878585049  1.0000
  I   I10       1.0  0.6258784119724332  0.3882184300945563  0.9112147120038675  1.0000
  I   I11       1.0  0.6258784121175343  0.11178157040971383  0.4112147121477773  1.0000
  I   I12       1.0  0.37412158752654845  0.6117815687939132  0.08878528800241448  1.0000
