data_image0
_chemical_formula_structural       H44C16N8O16Cl4
_chemical_formula_sum              "H44 C16 N8 O16 Cl4"
_cell_length_a       5.291309971515151
_cell_length_b       8.058270667590572
_cell_length_c       17.714095905056354
_cell_angle_alpha    90.0
_cell_angle_beta     90.0
_cell_angle_gamma    90.0

_space_group_name_H-M_alt    "P 1"
_space_group_IT_number       1

loop_
  _space_group_symop_operation_xyz
  'x, y, z'

loop_
  _atom_site_type_symbol
  _atom_site_label
  _atom_site_symmetry_multiplicity
  _atom_site_fract_x
  _atom_site_fract_y
  _atom_site_fract_z
  _atom_site_occupancy
  H   H1        1.0  0.49442438528145277  0.5848053812529789  0.35604179371072087  1.0000
  H   H2        1.0  0.9944243841933337  0.9151946198160028  0.6439582060038367  1.0000
  H   H3        1.0  0.5055756144322002  0.08480538048299792  0.1439582061465579  1.0000
  H   H4        1.0  0.005575615520319272  0.41519461904602195  0.8560417935679997  1.0000
  H   H5        1.0  0.32489873004127356  0.7632762020190443  0.3840974744896728  1.0000
  H   H6        1.0  0.8248987289531544  0.7367237978089762  0.6159025257894071  1.0000
  H   H7        1.0  0.6751012696723794  0.2632762012490634  0.11590252536760602  1.0000
  H   H8        1.0  0.1751012707604985  0.2367237982799564  0.8840974743469516  1.0000
  H   H9        1.0  0.16482606097451208  0.5087418999820935  0.2711892656417633  1.0000
  H   H10       1.0  0.664826059886393  0.991258099845927  0.7288107346373164  1.0000
  H   H11       1.0  0.835173940629032  0.008741900453073635  0.22881073421551548  1.0000
  H   H12       1.0  0.33517393982726  0.49125810031690725  0.7711892654990422  1.0000
  H   H13       1.0  0.032118269561769025  0.5559626456850639  0.35714129097574593  1.0000
  H   H14       1.0  0.53211826847365  0.9440373541429566  0.6428587093033339  1.0000
  H   H15       1.0  0.967881730151884  0.05596264615604405  0.1428587094460551  1.0000
  H   H16       1.0  0.46788173124000304  0.4440373533729758  0.8571412908330247  1.0000
  H   H17       1.0  0.0069157808174147755  0.6902471931565314  0.2861681413022627  1.0000
  H   H18       1.0  0.5069157797292957  0.8097528066714892  0.7138318584122949  1.0000
  H   H19       1.0  0.9930842188962382  0.19024719362751152  0.2138318585550161  1.0000
  H   H20       1.0  0.4930842199843573  0.30975280590150833  0.7861681417240637  1.0000
  H   H21       1.0  0.41945324918556326  0.291148270737039  0.34844497303631167  1.0000
  H   H22       1.0  0.9194532480974441  0.2088517287919808  0.6515550272427681  1.0000
  H   H23       1.0  0.5805467505280898  0.7911482702660588  0.15155502682096716  1.0000
  H   H24       1.0  0.08054675161620885  0.7088517295619616  0.8484449728935904  1.0000
  H   H25       1.0  0.9707726607687535  0.17639420151482815  0.4916559132726618  1.0000
  H   H26       1.0  0.4707726599669813  0.32360579925515276  0.508344087006418  1.0000
  H   H27       1.0  0.029227340834790703  0.676394201043848  0.008344086584617019  1.0000
  H   H28       1.0  0.5292273397466716  0.8236057987841726  0.9916559131299406  1.0000
  H   H29       1.0  0.7710981178507049  0.22244283220831054  0.41420436861841964  1.0000
  H   H30       1.0  0.271098118938824  0.2775571673207093  0.585795631096138  1.0000
  H   H31       1.0  0.22890188186294802  0.7224428317373304  0.08579563123885917  1.0000
  H   H32       1.0  0.7289018807748289  0.7775571680906902  0.9142043684756985  1.0000
  H   H33       1.0  0.9561042326445597  0.8898152663000517  0.4615397417864432  1.0000
  H   H34       1.0  0.45610423184278753  0.6101847347689299  0.5384602579281145  1.0000
  H   H35       1.0  0.043895767069093344  0.38981526553007084  0.038460258070835626  1.0000
  H   H36       1.0  0.5438957678708655  0.11018473399894897  0.9615397422082442  1.0000
  H   H37       1.0  0.6568949482664129  0.9568502856339849  0.469266839501937  1.0000
  H   H38       1.0  0.1568949474646409  0.5431497141940357  0.5307331607771427  1.0000
  H   H39       1.0  0.34310505144724  0.456850284864004  0.03073316091986395  1.0000
  H   H40       1.0  0.843105052249012  0.043149714665015854  0.9692668393592158  1.0000
  H   H41       1.0  0.7841615691268747  0.9201881391031914  0.38219081155970863  1.0000
  H   H42       1.0  0.28416156832510275  0.579811860724829  0.617809188154849  1.0000
  H   H43       1.0  0.21583843058677818  0.4201881395741716  0.11780918829757013  1.0000
  H   H44       1.0  0.7158384313885502  0.07981186119580927  0.8821908114169875  1.0000
  C   C1        1.0  0.4946169916502889  0.7799732162483058  0.2737485602421194  1.0000
  C   C2        1.0  0.994616992452061  0.7200267835797148  0.7262514400369604  1.0000
  C   C3        1.0  0.505383008063364  0.27997321671928593  0.22625144017968157  1.0000
  C   C4        1.0  0.0053830072615919594  0.22002678280973392  0.7737485600993983  1.0000
  C   C5        1.0  0.36573707086108453  0.6820403467091938  0.33596295582329166  1.0000
  C   C6        1.0  0.8657370697729654  0.8179596531188267  0.6640370444557882  1.0000
  C   C7        1.0  0.6342629288525684  0.18204034718017398  0.16403704403398714  1.0000
  C   C8        1.0  0.13426292994068753  0.3179596535898069  0.8359629556805706  1.0000
  C   C9        1.0  0.141331593504408  0.149802551911667  0.38120808683622837  1.0000
  C   C10       1.0  0.6413315924162889  0.35019744761735283  0.6187919128783292  1.0000
  C   C11       1.0  0.8586684062092449  0.6498025526816479  0.11879191302105044  1.0000
  C   C12       1.0  0.35866840729736404  0.8501974471463727  0.8812080872580293  1.0000
  C   C13       1.0  0.919169622679905  0.1385616909705832  0.43449697016730215  1.0000
  C   C14       1.0  0.41916962376802414  0.3614383097993977  0.5655030301117776  1.0000
  C   C15       1.0  0.08083037703374799  0.638561690499603  0.06550302968997664  1.0000
  C   C16       1.0  0.5808303759456289  0.8614383093284175  0.9344969700245809  1.0000
  N   N1        1.0  0.12711326186158098  0.6037016030704484  0.3102052303121771  1.0000
  N   N2        1.0  0.6271132607734619  0.8962983979985332  0.6897947699669027  1.0000
  N   N3        1.0  0.8728867397419631  0.10370160230046747  0.18979477010962387  1.0000
  N   N4        1.0  0.3728867389401911  0.3962983972285523  0.8102052301694559  1.0000
  N   N5        1.0  0.82287641877711  0.9665301975180223  0.4364388801684883  1.0000
  N   N6        1.0  0.32287641797533806  0.5334698023099983  0.5635611195460694  1.0000
  N   N7        1.0  0.17712358093654285  0.46653019674804136  0.06356111968879047  1.0000
  N   N8        1.0  0.6771235817383149  0.033469802780978455  0.9364388800257671  1.0000
  O   O1        1.0  0.38657896834841343  0.7873172832871579  0.2098423831463486  1.0000
  O   O2        1.0  0.8865789691501854  0.7126827177818238  0.7901576171327312  1.0000
  O   O3        1.0  0.6134210313652395  0.2873172825171769  0.29015761727545236  1.0000
  O   O4        1.0  0.11342103056346745  0.21268271701184294  0.7098423830036275  1.0000
  O   O5        1.0  0.7081110764953172  0.8447373140961192  0.2894851646668719  1.0000
  O   O6        1.0  0.2081110756935452  0.6552626857319015  0.710514835612208  1.0000
  O   O7        1.0  0.2918889232183357  0.3447373145670993  0.21051483575492907  1.0000
  O   O8        1.0  0.7918889240201077  0.15526268496192056  0.7894851645241507  1.0000
  O   O9        1.0  0.18388555296097794  0.04267769651659378  0.3333158712500048  1.0000
  O   O10       1.0  0.6838855518728588  0.4573223042533871  0.666684129029075  1.0000
  O   O11       1.0  0.8161144486425662  0.5426776960456136  0.16668412917179623  1.0000
  O   O12       1.0  0.3161144478407941  0.9573223037824069  0.8333158711072836  1.0000
  O   O13       1.0  0.2766469414720072  0.28697298780253566  0.3904093766380678  1.0000
  O   O14       1.0  0.7766469422737792  0.2130270129674452  0.609590623641012  1.0000
  O   O15       1.0  0.7233530582416458  0.7869729873315555  0.10959062378373322  1.0000
  O   O16       1.0  0.2233530574398737  0.713027012496465  0.8904093764953466  1.0000
  Cl  Cl1       1.0  0.33733695429090194  0.9259557028792412  0.5329428168730447  1.0000
  Cl  Cl2       1.0  0.837336955092674  0.5740442969487793  0.467057183406035  1.0000
  Cl  Cl3       1.0  0.6626630454227511  0.42595570210926037  0.9670571832633138  1.0000
  Cl  Cl4       1.0  0.16266304651087016  0.07404429741975947  0.03294281645124375  1.0000
