data_image0
_chemical_formula_structural       H88C32N16O32I8
_chemical_formula_sum              "H88 C32 N16 O32 I8"
_cell_length_a       18.311530537093955
_cell_length_b       5.156692063249624
_cell_length_c       20.1387384182555
_cell_angle_alpha    90.0
_cell_angle_beta     110.242221745702
_cell_angle_gamma    90.0

_space_group_name_H-M_alt    "P 1"
_space_group_IT_number       1

loop_
  _space_group_symop_operation_xyz
  'x, y, z'

loop_
  _atom_site_type_symbol
  _atom_site_label
  _atom_site_symmetry_multiplicity
  _atom_site_fract_x
  _atom_site_fract_y
  _atom_site_fract_z
  _atom_site_occupancy
  H   H1        1.0  0.4002953694587668  0.30378513217110986  0.20041341211939295  1.0000
  H   H2        1.0  0.5997046302936603  0.30378513217110986  0.79958658779477  1.0000
  H   H3        1.0  0.9002953695122263  0.8037851318560217  0.20041341198569157  1.0000
  H   H4        1.0  0.0997046307856506  0.8037851318560217  0.7995865879267597  1.0000
  H   H5        1.0  0.44825496692468486  0.4859746750944762  0.27873518003365294  1.0000
  H   H6        1.0  0.5517450328277421  0.4859746750944762  0.7212648198805099  1.0000
  H   H7        1.0  0.9482549671812937  0.9859746767186159  0.27873518042919115  1.0000
  H   H8        1.0  0.05174503277428267  0.9859746767186159  0.7212648200142113  1.0000
  H   H9        1.0  0.37603172508993277  0.15017585120488755  0.30589579657961796  1.0000
  H   H10       1.0  0.6239682754110935  0.15017585120488755  0.6941042038620729  1.0000
  H   H11       1.0  0.8760317245979425  0.6501758528290272  0.3058957964476282  1.0000
  H   H12       1.0  0.12396827515448468  0.6501758528290272  0.6941042034665348  1.0000
  H   H13       1.0  0.2933241774381549  0.23190296712160136  0.23899780325842757  1.0000
  H   H14       1.0  0.7066758223142722  0.23190296712160136  0.7610021966557353  1.0000
  H   H15       1.0  0.7933241774916145  0.7319029668065133  0.23899780312472624  1.0000
  H   H16       1.0  0.2066758222608126  0.7319029668065133  0.7610021967894367  1.0000
  H   H17       1.0  0.3277424367334016  0.42582015429019915  0.3100089897755461  1.0000
  H   H18       1.0  0.6722575630190256  0.42582015429019915  0.6899910101386169  1.0000
  H   H19       1.0  0.8277424367868611  0.9258201539751111  0.31000898964184476  1.0000
  H   H20       1.0  0.172257562965566  0.9258201539751111  0.6899910102723182  1.0000
  H   H21       1.0  0.7496363451189063  0.35286368813214064  0.33119873577715114  1.0000
  H   H22       1.0  0.25036365463352084  0.35286368813214064  0.6688012641370118  1.0000
  H   H23       1.0  0.24963634561089662  0.8528636897562802  0.3311987359091409  1.0000
  H   H24       1.0  0.7503636546869804  0.8528636897562802  0.6688012640033104  1.0000
  H   H25       1.0  0.6428658454179056  0.8188104948309002  0.2020444288907104  1.0000
  H   H26       1.0  0.3571341548799714  0.8188104948309002  0.797955571021741  1.0000
  H   H27       1.0  0.14286584516129677  0.3188104951459882  0.2020444284951722  1.0000
  H   H28       1.0  0.8571341551365802  0.3188104951459882  0.7979555714172791  1.0000
  H   H29       1.0  0.6655528928479562  0.9905722520070382  0.28339611896726236  1.0000
  H   H30       1.0  0.33444710690447094  0.9905722520070382  0.7166038809469006  1.0000
  H   H31       1.0  0.16555289279449664  0.4905722523221262  0.2833961191009637  1.0000
  H   H32       1.0  0.8344471069579306  0.4905722523221262  0.7166038808131993  1.0000
  H   H33       1.0  0.5321443619800854  0.058260420889021544  0.20639611741668681  1.0000
  H   H34       1.0  0.4678556383177916  0.058260420889021544  0.7936038824957644  1.0000
  H   H35       1.0  0.03214436192662583  0.5582604225131612  0.20639611755038823  1.0000
  H   H36       1.0  0.9678556383712511  0.5582604225131612  0.793603882362063  1.0000
  H   H37       1.0  0.533132154870658  0.9013434219050445  0.28145091820434104  1.0000
  H   H38       1.0  0.46686784488176897  0.9013434219050445  0.7185490817098219  1.0000
  H   H39       1.0  0.033132154817198514  0.40134342222013253  0.28145091833804237  1.0000
  H   H40       1.0  0.9668678449352286  0.40134342222013253  0.7185490815761205  1.0000
  H   H41       1.0  0.5133473406345104  0.7416352873299098  0.20420456485970767  1.0000
  H   H42       1.0  0.4866526591179167  0.7416352873299098  0.7957954350544552  1.0000
  H   H43       1.0  0.013347341126500696  0.2416352876449978  0.20420456499169745  1.0000
  H   H44       1.0  0.9866526591713762  0.2416352876449978  0.7957954349207538  1.0000
  H   H45       1.0  0.25245686898624403  0.8852720996341983  0.1704207740829005  1.0000
  H   H46       1.0  0.7475431307661832  0.8852720996341983  0.8295792258312625  1.0000
  H   H47       1.0  0.7524568690397034  0.38527209994928624  0.17042077394919908  1.0000
  H   H48       1.0  0.24754313071272355  0.38527209994928624  0.8295792259649638  1.0000
  H   H49       1.0  0.09535067780812731  0.3565362304844302  0.05527264423403422  1.0000
  H   H50       1.0  0.9046493219442998  0.3565362304844302  0.9447273556801287  1.0000
  H   H51       1.0  0.5953506778615869  0.8565362301693422  0.05527264410033285  1.0000
  H   H52       1.0  0.4046493218908403  0.8565362301693422  0.94472735581383  1.0000
  H   H53       1.0  0.18037985988913519  0.5489512841331299  0.07058540507714382  1.0000
  H   H54       1.0  0.819620139863292  0.5489512841331299  0.929414594837019  1.0000
  H   H55       1.0  0.6803798601457439  0.048951284448217905  0.07058540547268202  1.0000
  H   H56       1.0  0.31962014035528213  0.048951284448217905  0.9294145949690087  1.0000
  H   H57       1.0  0.09998764752977078  0.5441770122359468  0.9466592307664228  1.0000
  H   H58       1.0  0.9000123522226564  0.5441770122359468  0.05334076914774016  1.0000
  H   H59       1.0  0.5999876477863796  0.04417701255103477  0.9466592311619609  1.0000
  H   H60       1.0  0.40001235271464664  0.04417701255103477  0.05334076927972994  1.0000
  H   H61       1.0  0.10596508506171567  0.22094256279519237  0.9432990883454929  1.0000
  H   H62       1.0  0.8940349152361612  0.22094256279519237  0.05670091156695831  1.0000
  H   H63       1.0  0.6059650847728748  0.7209425624801044  0.9432990887427429  1.0000
  H   H64       1.0  0.3940349151827017  0.7209425624801044  0.056700911700659676  1.0000
  H   H65       1.0  0.18747115566131622  0.4023710713283208  0.9584307721827245  1.0000
  H   H66       1.0  0.8125288440911108  0.4023710713283208  0.04156922773143827  1.0000
  H   H67       1.0  0.6874711557147758  0.9023710710132328  0.9584307720490234  1.0000
  H   H68       1.0  0.3125288440376513  0.9023710710132328  0.041569227865139634  1.0000
  H   H69       1.0  0.33367763397194655  0.20835202622569135  0.4444721819299399  1.0000
  H   H70       1.0  0.6663223663259304  0.20835202622569135  0.5555278179825114  1.0000
  H   H71       1.0  0.8336776334799563  0.7083520259106033  0.44447218179795017  1.0000
  H   H72       1.0  0.1663223662724709  0.7083520259106033  0.5555278181162128  1.0000
  H   H73       1.0  0.41610838786977006  0.4160772417052  0.46298942130396536  1.0000
  H   H74       1.0  0.583891611882657  0.4160772417052  0.5370105786101975  1.0000
  H   H75       1.0  0.9161083879232296  0.916077241390112  0.462989421170264  1.0000
  H   H76       1.0  0.08389161182919748  0.916077241390112  0.5370105787438989  1.0000
  H   H77       1.0  0.4038608493464678  0.23874580349173807  0.5695333678882613  1.0000
  H   H78       1.0  0.5961391511545584  0.23874580349173807  0.4304666325534296  1.0000
  H   H79       1.0  0.9038608488544775  0.7387458031766501  0.5695333677562714  1.0000
  H   H80       1.0  0.09613915089794964  0.7387458031766501  0.43046663215789144  1.0000
  H   H81       1.0  0.31271256910684114  0.3672849855623262  0.549428378197188  1.0000
  H   H82       1.0  0.687287430645586  0.3672849855623262  0.4505716217169749  1.0000
  H   H83       1.0  0.8127125693634499  0.8672849852472382  0.5494283785927261  1.0000
  H   H84       1.0  0.1872874311375763  0.8672849852472382  0.4505716218489647  1.0000
  H   H85       1.0  0.39309773529080705  0.5603744909636885  0.5686079866740121  1.0000
  H   H86       1.0  0.6069022650070699  0.5603744909636885  0.43139201323843906  1.0000
  H   H87       1.0  0.8930977347988168  0.06037449127877642  0.5686079865420226  1.0000
  H   H88       1.0  0.10690226495361031  0.06037449127877642  0.4313920133721404  1.0000
  C   C1        1.0  0.35153593811022954  0.6799456448036248  0.2023029960422434  1.0000
  C   C2        1.0  0.6484640616421976  0.6799456448036248  0.7976970038719194  1.0000
  C   C3        1.0  0.8515359383668384  0.1799456451187129  0.20230299643778157  1.0000
  C   C4        1.0  0.1484640613855888  0.1799456451187129  0.7976970034763813  1.0000
  C   C5        1.0  0.3912983487560374  0.436671089213922  0.23959209934225006  1.0000
  C   C6        1.0  0.6087016509963897  0.436671089213922  0.7604079005719129  1.0000
  C   C7        1.0  0.891298348809497  0.936671088898834  0.23959209920854868  1.0000
  C   C8        1.0  0.10870165094293013  0.936671088898834  0.7604079007056141  1.0000
  C   C9        1.0  0.6544112424456006  0.5783695212780491  0.2913376135653925  1.0000
  C   C10       1.0  0.34558875785227655  0.5783695212780491  0.7086623863470589  1.0000
  C   C11       1.0  0.1544112423921409  0.07836952159313708  0.2913376136990938  1.0000
  C   C12       1.0  0.845588757905736  0.07836952159313708  0.7086623862133574  1.0000
  C   C13       1.0  0.6308968584346508  0.83166038371068  0.2517908603257547  1.0000
  C   C14       1.0  0.3691031418632262  0.83166038371068  0.7482091395866967  1.0000
  C   C15       1.0  0.13089685838119122  0.3316603820865403  0.251790860459456  1.0000
  C   C16       1.0  0.8691031413712358  0.3316603820865403  0.7482091394547068  1.0000
  C   C17       1.0  0.20047032466947418  0.13444620145944888  0.07766951535753595  1.0000
  C   C18       1.0  0.7995296758315521  0.13444620145944888  0.9223304850841549  1.0000
  C   C19       1.0  0.7004703241774838  0.6344462011443609  0.07766951522554617  1.0000
  C   C20       1.0  0.2995296755749433  0.6344462011443609  0.9223304846886169  1.0000
  C   C21       1.0  0.15089003461294404  0.37020434351803727  0.04588540941635525  1.0000
  C   C22       1.0  0.849109965139483  0.37020434351803727  0.9541145904978077  1.0000
  C   C23       1.0  0.6508900346664036  0.8702043432029494  0.04588540928265389  1.0000
  C   C24       1.0  0.34910996508602354  0.8702043432029494  0.954114590631509  1.0000
  C   C25       1.0  0.30622996695945864  0.6166787314416495  0.4299855027157793  1.0000
  C   C26       1.0  0.6937700329961178  0.6166787314416495  0.5700144977276232  1.0000
  C   C27       1.0  0.8062299670129182  0.11667873175673749  0.429985502582078  1.0000
  C   C28       1.0  0.1937700332849588  0.11667873175673749  0.5700144973303735  1.0000
  C   C29       1.0  0.3585546846771604  0.39448918900890484  0.46803505246663446  1.0000
  C   C30       1.0  0.6414453150752667  0.39448918900890484  0.5319649474475284  1.0000
  C   C31       1.0  0.85855468473062  0.8944891886938169  0.4680350523329331  1.0000
  C   C32       1.0  0.14144531502180713  0.8944891886938169  0.5319649475812298  1.0000
  N   N1        1.0  0.34405902987191306  0.3029059057320692  0.27573482069032507  1.0000
  N   N2        1.0  0.6559409704259639  0.3029059057320692  0.7242651792221262  1.0000
  N   N3        1.0  0.844059029583072  0.8029059054169813  0.27573482108757486  1.0000
  N   N4        1.0  0.15594097016935513  0.8029059054169813  0.7242651788265881  1.0000
  N   N5        1.0  0.5477250791524229  0.8864922578136718  0.23581158379400724  1.0000
  N   N6        1.0  0.4522749206000043  0.8864922578136718  0.7641884161201556  1.0000
  N   N7        1.0  0.047725079098963306  0.38649225618953204  0.23581158392770857  1.0000
  N   N8        1.0  0.9522749206534638  0.38649225618953204  0.7641884159864543  1.0000
  N   N9        1.0  0.135364572696201  0.38524941292462683  0.9688286001401019  1.0000
  N   N10       1.0  0.8646354270562261  0.38524941292462683  0.03117139977406122  1.0000
  N   N11       1.0  0.6353645727496605  0.8852494126095387  0.9688286000064003  1.0000
  N   N12       1.0  0.36463542700276663  0.8852494126095387  0.031171399907762586  1.0000
  N   N13       1.0  0.3672681435583257  0.39069106421111394  0.5438281072654447  1.0000
  N   N14       1.0  0.6327318563972507  0.39069106421111394  0.4561718931779577  1.0000
  N   N15       1.0  0.8672681436117853  0.8906910638960259  0.5438281071317433  1.0000
  N   N16       1.0  0.13273185614064184  0.8906910638960259  0.4561718927824195  1.0000
  O   O1        1.0  0.278512494702323  0.7009794545928502  0.19707801971312727  1.0000
  O   O2        1.0  0.7214875050501041  0.7009794545928502  0.8029219802010356  1.0000
  O   O3        1.0  0.7785124949589317  0.20097945296871042  0.19707802010866549  1.0000
  O   O4        1.0  0.22148750499664452  0.20097945296871042  0.8029219803347369  1.0000
  O   O5        1.0  0.3878226607526181  0.838615065037414  0.17943516734722617  1.0000
  O   O6        1.0  0.612177338999809  0.838615065037414  0.8205648325669368  1.0000
  O   O7        1.0  0.8878226608060775  0.3386150653525021  0.17943516721352482  1.0000
  O   O8        1.0  0.11217733894634951  0.3386150653525021  0.8205648327006382  1.0000
  O   O9        1.0  0.7290266987050299  0.5330946246706155  0.3054288316240503  1.0000
  O   O10       1.0  0.2709733010473973  0.5330946246706155  0.6945711682901126  1.0000
  O   O11       1.0  0.22902669865157022  0.033094624985703515  0.3054288317577517  1.0000
  O   O12       1.0  0.7709733013040061  0.033094624985703515  0.6945711686856508  1.0000
  O   O13       1.0  0.6086835603436465  0.43763518595249423  0.3075163845932461  1.0000
  O   O14       1.0  0.39131643940878064  0.43763518595249423  0.6924836153209168  1.0000
  O   O15       1.0  0.1086835608356368  0.9376351856374061  0.30751638472523585  1.0000
  O   O16       1.0  0.8913164394622402  0.9376351856374061  0.6924836151872155  1.0000
  O   O17       1.0  0.21953049589950524  0.11482753725396076  0.14537826927255798  1.0000
  O   O18       1.0  0.7804695038529218  0.11482753725396076  0.8546217306416048  1.0000
  O   O19       1.0  0.7195304959529648  0.6148275369388727  0.14537826913885663  1.0000
  O   O20       1.0  0.2804695043449123  0.6148275369388727  0.8546217307735948  1.0000
  O   O21       1.0  0.2179927656413346  0.977815238558664  0.03798263057518654  1.0000
  O   O22       1.0  0.7820072341110924  0.977815238558664  0.9620173693389763  1.0000
  O   O23       1.0  0.7179927656947941  0.47781523887375205  0.03798263044148517  1.0000
  O   O24       1.0  0.2820072346030828  0.47781523887375205  0.962017369470966  1.0000
  O   O25       1.0  0.2894372092268537  0.6201518319836884  0.36244692479831364  1.0000
  O   O26       1.0  0.7105627910710234  0.6201518319836884  0.6375530751141376  1.0000
  O   O27       1.0  0.7894372089380126  0.12015183229877639  0.3624469251955635  1.0000
  O   O28       1.0  0.21056279081441448  0.12015183229877639  0.6375530747185993  1.0000
  O   O29       1.0  0.28337412209512675  0.7784999978203407  0.4650316139820059  1.0000
  O   O30       1.0  0.7166258782027503  0.7784999978203407  0.5349683859304455  1.0000
  O   O31       1.0  0.7833741221485863  0.27849999813542864  0.4650316138483045  1.0000
  O   O32       1.0  0.21662587814929074  0.27849999813542864  0.5349683860641469  1.0000
  I   I1        1.0  0.4920566602256992  0.902385014060271  0.3906479258109632  1.0000
  I   I2        1.0  0.5079433395267278  0.902385014060271  0.6093520741031997  1.0000
  I   I3        1.0  0.9920566602791587  0.4023850143753591  0.3906479256772618  1.0000
  I   I4        1.0  0.007943339473268383  0.4023850143753591  0.6093520742369011  1.0000
  I   I5        1.0  0.5055328213102699  0.37495314947729175  0.10797907235703097  1.0000
  I   I6        1.0  0.49446717844215726  0.37495314947729175  0.8920209275571319  1.0000
  I   I7        1.0  0.005532821256810306  0.8749531491622038  0.10797907249073234  1.0000
  I   I8        1.0  0.9944671784956168  0.8749531491622038  0.8920209274234305  1.0000
