data_image0
_chemical_formula_structural       H18C34N8O2Cl2
_chemical_formula_sum              "H18 C34 N8 O2 Cl2"
_cell_length_a       6.8449587580782225
_cell_length_b       7.205404023695543
_cell_length_c       16.078983355641167
_cell_angle_alpha    98.71384439951555
_cell_angle_beta     94.70420547267034
_cell_angle_gamma    110.07084474285774

_space_group_name_H-M_alt    "P 1"
_space_group_IT_number       1

loop_
  _space_group_symop_operation_xyz
  'x, y, z'

loop_
  _atom_site_type_symbol
  _atom_site_label
  _atom_site_symmetry_multiplicity
  _atom_site_fract_x
  _atom_site_fract_y
  _atom_site_fract_z
  _atom_site_occupancy
  H   H1        1.0  0.5316700197405327  0.29651256934366665  0.6888916009593057  1.0000
  H   H2        1.0  0.46832998068797177  0.7034874312780576  0.3111083988809261  1.0000
  H   H3        1.0  0.5318167274307989  0.7293243902955722  0.8306534394135506  1.0000
  H   H4        1.0  0.4681832726909831  0.2706756091378448  0.16934656106265641  1.0000
  H   H5        1.0  0.6587311301896827  0.07514056858588486  0.915220738554264  1.0000
  H   H6        1.0  0.34126887023882174  0.9248594320358392  0.08477926128596774  1.0000
  H   H7        1.0  0.416061976699089  0.951193367877193  0.6040312912719232  1.0000
  H   H8        1.0  0.5839380237294154  0.04880663274453101  0.3959687085683085  1.0000
  H   H9        1.0  0.8493718112983638  0.4048825153498543  0.9598177908947999  1.0000
  H   H10       1.0  0.15062818859305854  0.5951174837943489  0.04018220894555862  1.0000
  H   H11       1.0  0.5772204512074246  0.35824894032124466  0.9672493361022648  1.0000
  H   H12       1.0  0.4227795486839978  0.6417510588229587  0.032750663738093634  1.0000
  H   H13       1.0  0.7510762205763633  0.605332099572856  0.9605681364148188  1.0000
  H   H14       1.0  0.2489237798521413  0.39466790104886806  0.03943186342541299  1.0000
  H   H15       1.0  0.03812277331622503  0.8328914742892041  0.35194730909975713  1.0000
  H   H16       1.0  0.9618772271122793  0.16710852633251996  0.6480526907404747  1.0000
  H   H17       1.0  0.01689810967950908  0.43070343621559104  0.23556648007992875  1.0000
  H   H18       1.0  0.9831018902119132  0.5692965629286124  0.7644335197604297  1.0000
  C   C1        1.0  0.536932314872002  0.17329347800753858  0.7194779760998138  1.0000
  C   C2        1.0  0.46306768501942036  0.8267065211366648  0.2805220237405447  1.0000
  C   C3        1.0  0.46906462819285544  0.8205838423188309  0.712732729709306  1.0000
  C   C4        1.0  0.5309353719289265  0.17941615711458592  0.2872672707669012  1.0000
  C   C5        1.0  0.6052560339749347  0.21053331752724502  0.8072744129531015  1.0000
  C   C6        1.0  0.3947439659164877  0.7894666816169582  0.19272558688725686  1.0000
  C   C7        1.0  0.5360820916366908  0.8550762788740159  0.7998707218491887  1.0000
  C   C8        1.0  0.46391790902217317  0.14492372203692175  0.20012927862689178  1.0000
  C   C9        1.0  0.6058277053481663  0.05068948997782661  0.8474178233158227  1.0000
  C   C10       1.0  0.3941722947736157  0.9493105094555904  0.15258217716038444  1.0000
  C   C11       1.0  0.4700910095320144  0.9791762876431784  0.6719791494893982  1.0000
  C   C12       1.0  0.5299089903594081  0.020823711501024966  0.3280208503509603  1.0000
  C   C13       1.0  0.7137511543912811  0.4438415084180336  0.939577999906802  1.0000
  C   C14       1.0  0.2862488455001413  0.5561584907261696  0.06042199993355636  1.0000
  C   C15       1.0  0.03294131133743917  0.9623980108832006  0.32619365026117714  1.0000
  C   C16       1.0  0.9670586890910653  0.03760198973852347  0.6738063495790546  1.0000
  C   C17       1.0  0.18642725864247453  0.17265392700227813  0.46562893643315934  1.0000
  C   C18       1.0  0.8135727412489479  0.8273460721419251  0.5343710634071992  1.0000
  C   C19       1.0  0.9584139308419503  0.9415164526881018  0.240473089049808  1.0000
  C   C20       1.0  0.041586069049472096  0.05848354645610139  0.7595269107905505  1.0000
  C   C21       1.0  0.9570522234102969  0.11306317988219886  0.2075553985169962  1.0000
  C   C22       1.0  0.042947777018207484  0.8869368207395253  0.7924446013232356  1.0000
  C   C23       1.0  0.0918468113451173  0.3213521881824123  0.3476532471671721  1.0000
  C   C24       1.0  0.9081531887766647  0.6786478112510046  0.652346753309035  1.0000
  C   C25       1.0  0.15060239299691133  0.5114896026736215  0.4032211943160094  1.0000
  C   C26       1.0  0.849397606894511  0.4885103964705818  0.596778805524349  1.0000
  C   C27       1.0  0.10137881818664805  0.15133663186252308  0.37956529237414655  1.0000
  C   C28       1.0  0.8986211822418564  0.8486633687592011  0.6204347074660853  1.0000
  C   C29       1.0  0.8869283301330768  0.7480738350573276  0.1867613520477575  1.0000
  C   C30       1.0  0.11307167052578727  0.25192616585361005  0.8132386484283229  1.0000
  C   C31       1.0  0.021835810564972438  0.301199096483033  0.26138457119947917  1.0000
  C   C32       1.0  0.9781641900938917  0.6988009044279047  0.7386154292766013  1.0000
  C   C33       1.0  0.8886428736401802  0.09271091784719034  0.119530120484382  1.0000
  C   C34       1.0  0.11135712701868386  0.9072890830637474  0.8804698799916986  1.0000
  N   N1        1.0  0.26039005221318606  0.18957955153672543  0.5355730806605941  1.0000
  N   N2        1.0  0.7396099482153183  0.8104204490849984  0.46442691917963763  1.0000
  N   N3        1.0  0.8277287046143417  0.5880763454224269  0.14374710672979849  1.0000
  N   N4        1.0  0.17227129527708068  0.4119236537217763  0.85625289311056  1.0000
  N   N5        1.0  0.19534250718766458  0.6671984057338389  0.4484823419102998  1.0000
  N   N6        1.0  0.8046574932408399  0.3328015948878853  0.551517657929932  1.0000
  N   N7        1.0  0.8333512277503348  0.07272265088368043  0.04709198508847971  1.0000
  N   N8        1.0  0.16664877267816977  0.9272773497380437  0.952908014751752  1.0000
  O   O1        1.0  0.6671793270107859  0.4057347842604352  0.848417994849718  1.0000
  O   O2        1.0  0.3328206734177186  0.5942652163612888  0.15158200499051377  1.0000
  Cl  Cl1       1.0  0.3802753755020651  0.5781850175562246  0.6533812252515775  1.0000
  Cl  Cl2       1.0  0.6197246249264393  0.4218149830654994  0.3466187745886543  1.0000
