data_image0
_chemical_formula_structural       H34C34N10O12
_chemical_formula_sum              "H34 C34 N10 O12"
_cell_length_a       5.485945369303454
_cell_length_b       15.170033238636684
_cell_length_c       10.660191653476607
_cell_angle_alpha    90.0
_cell_angle_beta     104.63614157654548
_cell_angle_gamma    90.0

_space_group_name_H-M_alt    "P 1"
_space_group_IT_number       1

loop_
  _space_group_symop_operation_xyz
  'x, y, z'

loop_
  _atom_site_type_symbol
  _atom_site_label
  _atom_site_symmetry_multiplicity
  _atom_site_fract_x
  _atom_site_fract_y
  _atom_site_fract_z
  _atom_site_occupancy
  H   H1        1.0  0.31150436622890887  0.2825248707487453  0.24966855794824133  1.0000
  H   H2        1.0  0.6884956352157914  0.7825248707936798  0.7503314430204566  1.0000
  H   H3        1.0  0.7825025681293407  0.5734073909505643  0.4977441061290996  1.0000
  H   H4        1.0  0.2174974314317755  0.07340739090562978  0.5022558936564044  1.0000
  H   H5        1.0  0.46859146114500966  0.45637388073529245  0.5002206054124396  1.0000
  H   H6        1.0  0.5314085384161066  0.9563738807802269  0.4997793943730642  1.0000
  H   H7        1.0  0.6140500479596422  0.3421799661439964  0.15384677228066193  1.0000
  H   H8        1.0  0.38594995348544886  0.8421799661889308  0.8461532277500173  1.0000
  H   H9        1.0  0.9214659307878247  0.46145114910961815  0.1500962847650153  1.0000
  H   H10       1.0  0.07853407065726643  0.9614511484953583  0.8499037152656639  1.0000
  H   H11       1.0  0.3782845075232299  0.28651807162359355  0.5026964643784726  1.0000
  H   H12       1.0  0.6217154920378862  0.786518071668528  0.4973035354070314  1.0000
  H   H13       1.0  0.6034152898504084  0.1757990670190298  0.9195573894592054  1.0000
  H   H14       1.0  0.39658470971070786  0.6757990670639643  0.08044261032629835  1.0000
  H   H15       1.0  0.388657694475967  0.21719323868113705  0.9996212633875182  1.0000
  H   H16       1.0  0.6113423069691241  0.7171932387260715  0.0003787366431609408  1.0000
  H   H17       1.0  0.09512897780695546  0.29110779788883784  0.9883999994004771  1.0000
  H   H18       1.0  0.9048710217537699  0.7911077979337723  0.01160000132304531  1.0000
  H   H19       1.0  0.8655089453719554  0.36106812976846514  0.8947594548197161  1.0000
  H   H20       1.0  0.1344910541891606  0.8610681298133996  0.10524054496578777  1.0000
  H   H21       1.0  0.5854881406129969  0.20731081274035695  0.6930740217405807  1.0000
  H   H22       1.0  0.4145118589481192  0.7073108127852914  0.30692597804492316  1.0000
  H   H23       1.0  0.8482318484109825  0.396941840882951  0.6731856940518895  1.0000
  H   H24       1.0  0.1517681511501336  0.8969418409278854  0.32681430573361425  1.0000
  H   H25       1.0  0.03348848564586941  0.3747800450113545  0.48163077845525726  1.0000
  H   H26       1.0  0.9665115139152468  0.874780045056289  0.5183692213302465  1.0000
  H   H27       1.0  0.6836546703782911  0.11127008315979776  0.3519947392116882  1.0000
  H   H28       1.0  0.31634533106640905  0.6112700832047322  0.6480052617570097  1.0000
  H   H29       1.0  0.006841320796211749  0.22149715344341397  0.33841420953214535  1.0000
  H   H30       1.0  0.9931586787649043  0.7214971528291542  0.6615857902533586  1.0000
  H   H31       1.0  0.07603749458092722  0.10364121062013544  0.9788650598181944  1.0000
  H   H32       1.0  0.923962504980189  0.60364121066507  0.02113493996730954  1.0000
  H   H33       1.0  0.7420344713391324  0.9953947913272362  0.9908892452704235  1.0000
  H   H34       1.0  0.25796553010595874  0.49539479128230174  0.009110754760255559  1.0000
  C   C1        1.0  0.8711956463169913  0.52323865578513  0.324602081039295  1.0000
  C   C2        1.0  0.12880435512809973  0.02323865574019544  0.6753979189913843  1.0000
  C   C3        1.0  0.7426087160330934  0.5228387410384339  0.4229658078566224  1.0000
  C   C4        1.0  0.25739128352802276  0.02283874099349939  0.5770341919288815  1.0000
  C   C5        1.0  0.5684748995032333  0.45720803250021874  0.4240378481756164  1.0000
  C   C6        1.0  0.431525100057883  0.9572080325451533  0.5759621516098875  1.0000
  C   C7        1.0  0.5235219336499437  0.39019526041143726  0.3285798697252645  1.0000
  C   C8        1.0  0.4764780659111724  0.8901952604563718  0.6714201300602394  1.0000
  C   C9        1.0  0.6497678202285337  0.39311881036695373  0.22820118823499755  1.0000
  C   C10       1.0  0.3502321793325824  0.8931188104118883  0.7717988115505064  1.0000
  C   C11       1.0  0.8218340060364517  0.45936868234747946  0.22615544308457558  1.0000
  C   C12       1.0  0.17816599352466453  0.959368682392414  0.7738445567009283  1.0000
  C   C13       1.0  0.42294936804983446  0.24787195458629907  0.6949675837749568  1.0000
  C   C14       1.0  0.5770506315112817  0.7478719546312337  0.3050324160105471  1.0000
  C   C15       1.0  0.3315855117332269  0.2548706175641491  0.8049185644987493  1.0000
  C   C16       1.0  0.6684144897114732  0.7548706176090836  0.1950814364699484  1.0000
  C   C17       1.0  0.11514554876603483  0.3101779037646242  0.7979674044597874  1.0000
  C   C18       1.0  0.8848544507950812  0.8101779038095588  0.20203259532571632  1.0000
  C   C19       1.0  0.009084447592829151  0.35373418011589347  0.6799223324834793  1.0000
  C   C20       1.0  0.9909155538522618  0.853734180160828  0.32007766754719985  1.0000
  C   C21       1.0  0.10785523689798496  0.3429740065927227  0.5745775121431427  1.0000
  C   C22       1.0  0.8921447626631313  0.8429740066376571  0.42542248764236135  1.0000
  C   C23       1.0  0.6933359097348901  0.047791216314114975  0.1716573621886111  1.0000
  C   C24       1.0  0.3066640898262261  0.5477912163590495  0.8283426375968929  1.0000
  C   C25       1.0  0.769892381571898  0.11063982613599316  0.2706970871884807  1.0000
  C   C26       1.0  0.2301076179892181  0.6106398261809276  0.7293029125970233  1.0000
  C   C27       1.0  0.9521311306024732  0.17154940263228297  0.2632840920646609  1.0000
  C   C28       1.0  0.04786887084261789  0.6715494026772174  0.7367159079660184  1.0000
  C   C29       1.0  0.06526597032403998  0.17115021036258005  0.15680771573630906  1.0000
  C   C30       1.0  0.9347340292370762  0.6711502104075145  0.8431922840491949  1.0000
  C   C31       1.0  0.9885647427557342  0.10524280763826983  0.05982756861913453  1.0000
  C   C32       1.0  0.01143525868935682  0.60524280702401  0.9401724314115446  1.0000
  C   C33       1.0  0.8038659033873341  0.04486742970783158  0.06616910319693342  1.0000
  C   C34       1.0  0.19613409805775686  0.5448674297527661  0.9338308968337459  1.0000
  N   N1        1.0  0.061396752671960646  0.5887015077366162  0.3262469385225388  1.0000
  N   N2        1.0  0.9386032487727397  0.08870150769168177  0.6737530624461591  1.0000
  N   N3        1.0  0.3102941901823639  0.2908794859302866  0.584110580150742  1.0000
  N   N4        1.0  0.6897058093787523  0.7908794859752211  0.41588941963476184  1.0000
  N   N5        1.0  0.4429167767941899  0.20999552406295785  0.9154051124172891  1.0000
  N   N6        1.0  0.5570832227669262  0.7099955241078924  0.08459488736821488  1.0000
  N   N7        1.0  0.01683854426994241  0.3202153708950314  0.9009010789077438  1.0000
  N   N8        1.0  0.9831614552911738  0.8202153709399659  0.09909892087776001  1.0000
  N   N9        1.0  0.49854135001256183  0.9874105299815514  0.17850775023195417  1.0000
  N   N10       1.0  0.5014586495485543  0.487410529936617  0.8214922495535497  1.0000
  O   O1        1.0  0.12250136015995895  0.6400343379124045  0.4208109305257645  1.0000
  O   O2        1.0  0.877498641285132  0.14003433786747002  0.5791890695049147  1.0000
  O   O3        1.0  0.161884747401967  0.5911891773024208  0.23314022571624982  1.0000
  O   O4        1.0  0.8381152521591492  0.09118917791668066  0.7668597740692541  1.0000
  O   O5        1.0  0.36472326867789706  0.3250678197224023  0.3369354271153566  1.0000
  O   O6        1.0  0.6352767308832191  0.8250678197673368  0.6630645726701473  1.0000
  O   O7        1.0  0.4133399197112499  0.9366073387243872  0.08412352046286549  1.0000
  O   O8        1.0  0.5866600798498662  0.4366073386794526  0.9158764793226385  1.0000
  O   O9        1.0  0.41603670028047496  0.9871004331000219  0.27786075274590893  1.0000
  O   O10       1.0  0.5839633011642252  0.4871004330550875  0.722139248222789  1.0000
  O   O11       1.0  0.23415039038290306  0.2304280356549928  0.1451225680381392  1.0000
  O   O12       1.0  0.7658496091782131  0.7304280356999273  0.8548774317473647  1.0000
