data_image0
_chemical_formula_structural       H34C34N10O12
_chemical_formula_sum              "H34 C34 N10 O12"
_cell_length_a       5.417766437699345
_cell_length_b       14.983296569495556
_cell_length_c       10.896246534842778
_cell_angle_alpha    90.0
_cell_angle_beta     104.461165198677
_cell_angle_gamma    90.0

_space_group_name_H-M_alt    "P 1"
_space_group_IT_number       1

loop_
  _space_group_symop_operation_xyz
  'x, y, z'

loop_
  _atom_site_type_symbol
  _atom_site_label
  _atom_site_symmetry_multiplicity
  _atom_site_fract_x
  _atom_site_fract_y
  _atom_site_fract_z
  _atom_site_occupancy
  H   H1        1.0  0.797102608353795  0.6182528869420807  0.7457760819582641  1.0000
  H   H2        1.0  0.202897391494664  0.11825288659154211  0.25422391808661415  1.0000
  H   H3        1.0  0.40951662949401146  0.44262074432284143  0.6386832121117044  1.0000
  H   H4        1.0  0.5904833703544474  0.94262074467338  0.3613167879331737  1.0000
  H   H5        1.0  0.07879922258990857  0.5564281719533959  0.6388518222055344  1.0000
  H   H6        1.0  0.9212007772585503  0.056428171602857416  0.3611481778393438  1.0000
  H   H7        1.0  0.00015660110137476056  0.45713315612697625  2.709875826151679e-05  1.0000
  H   H8        1.0  0.9998433987470842  0.9571331564775147  0.9999729012866165  1.0000
  H   H9        1.0  0.33668746950598333  0.3439286999425316  0.0005651084434804707  1.0000
  H   H10       1.0  0.6633125303424756  0.8439286996256603  0.9994348916013976  1.0000
  H   H11       1.0  0.24893477943321662  0.9240348454549828  0.5087065114853531  1.0000
  H   H12       1.0  0.7510652223214134  0.42403484510444434  0.4912934887952486  1.0000
  H   H13       1.0  0.5786999487341749  0.812734943443089  0.49006975307472983  1.0000
  H   H14       1.0  0.4213000511142841  0.3127349430925505  0.5099302469701483  1.0000
  H   H15       1.0  0.49577048688274045  0.6832960498722002  0.8326446654820344  1.0000
  H   H16       1.0  0.5042295129657184  0.1832960501890715  0.1673553345628438  1.0000
  H   H17       1.0  0.17132178908606277  0.7954397755340736  0.8513677896636618  1.0000
  H   H18       1.0  0.8286782107623961  0.29543977518353515  0.1486322103812165  1.0000
  H   H19       1.0  0.09263317369937683  0.7229231971589197  0.23445823987336845  1.0000
  H   H20       1.0  0.907366826149082  0.22292319680838116  0.7655417601715098  1.0000
  H   H21       1.0  0.8742383414488402  0.698369673286944  0.5110096159626363  1.0000
  H   H22       1.0  0.1257616583996187  0.1983696729364055  0.4889903840822418  1.0000
  H   H23       1.0  0.10821226858338898  0.7418603949033512  0.4431265997800464  1.0000
  H   H24       1.0  0.8917877312650698  0.24186039522022257  0.5568734002648317  1.0000
  H   H25       1.0  0.5822722648602804  0.6216469664601711  0.49004004676731505  1.0000
  H   H26       1.0  0.41772773498817845  0.12164696677704247  0.509959953277563  1.0000
  H   H27       1.0  0.35424250152473546  0.5544153198510487  0.3905267538960053  1.0000
  H   H28       1.0  0.6457574983237234  0.05441531950051026  0.609473246148873  1.0000
  H   H29       1.0  0.5756748055201599  0.5518092811986807  0.9959113492305316  1.0000
  H   H30       1.0  0.42432519432829907  0.051809281515552016  0.004088650814346743  1.0000
  H   H31       1.0  0.9558135463377401  0.6555480313989867  0.03552582344838517  1.0000
  H   H32       1.0  0.04418645541688983  0.15554803171585793  0.9644741768322164  1.0000
  H   H33       1.0  0.3638877927846098  0.524709118820084  0.1731357352206792  1.0000
  H   H34       1.0  0.6361122070638491  0.024709118469545478  0.826864264824199  1.0000
  C   C1        1.0  0.3929844421431405  0.3871347205266783  0.8199496443398743  1.0000
  C   C2        1.0  0.6070155577053183  0.887134720209807  0.18005035570500388  1.0000
  C   C3        1.0  0.3193461839434466  0.446313471737224  0.7171300124868334  1.0000
  C   C4        1.0  0.6806538159050123  0.9463134720877625  0.28286998755804477  1.0000
  C   C5        1.0  0.13475986620100897  0.5097632850403593  0.7174698668709545  1.0000
  C   C6        1.0  0.86524013364745  0.009763284689820769  0.28253013317392367  1.0000
  C   C7        1.0  0.018598082160028603  0.514715057145775  0.8204294103709997  1.0000
  C   C8        1.0  0.9814019176884303  0.014715057462646414  0.17957058967387832  1.0000
  C   C9        1.0  0.09213042322720078  0.45346185857607607  0.9220307679418073  1.0000
  C   C10       1.0  0.9078695766192675  0.9534618582592048  0.07796923118507706  1.0000
  C   C11       1.0  0.2782510148944638  0.39069037930663353  0.9223405588370213  1.0000
  C   C12       1.0  0.7217489849539951  0.8906903796571721  0.0776594412078569  1.0000
  C   C13       1.0  0.19088071826055747  0.8652285276387919  0.6804849718005257  1.0000
  C   C14       1.0  0.8091192815879014  0.3652285279556632  0.31951502824435246  1.0000
  C   C15       1.0  0.30586430387691504  0.8711843164457542  0.5785275306415527  1.0000
  C   C16       1.0  0.6941356959715438  0.3711843167626256  0.4214724694033255  1.0000
  C   C17       1.0  0.48812430644497923  0.8093123495057573  0.5684787258482836  1.0000
  C   C18       1.0  0.5118756934034796  0.3093123491552187  0.4315212741965945  1.0000
  C   C19       1.0  0.5600077578107633  0.7392678953275847  0.658742523366258  1.0000
  C   C20       1.0  0.439992242035705  0.23926789564445614  0.3412574757606262  1.0000
  C   C21       1.0  0.44315060122807226  0.7360946550610337  0.7623369536783053  1.0000
  C   C22       1.0  0.5568493986203866  0.23609465471049518  0.23766304636657287  1.0000
  C   C23       1.0  0.2619034753200571  0.7981748925899179  0.7729250496481468  1.0000
  C   C24       1.0  0.7380965245284019  0.2981748929067892  0.22707495039673142  1.0000
  C   C25       1.0  0.8355439382682347  0.6667263211180187  0.32116142403516573  1.0000
  C   C26       1.0  0.1644560615802241  0.16672632143488997  0.6788385760097124  1.0000
  C   C27       1.0  0.6153980029673831  0.6104354150354998  0.3040579705056541  1.0000
  C   C28       1.0  0.38460199688107577  0.11043541535237118  0.695942029539224  1.0000
  C   C29       1.0  0.6454330752590701  0.5840885081202555  0.08723881673520044  1.0000
  C   C30       1.0  0.3545669245893887  0.08408850776971694  0.9127611833096779  1.0000
  C   C31       1.0  0.8524791070302435  0.6399090424146092  0.10609590364607117  1.0000
  C   C32       1.0  0.14752089281821548  0.1399090420640707  0.893904096398807  1.0000
  C   C33       1.0  0.5272068910519601  0.569349930466417  0.18614852233601661  1.0000
  C   C34       1.0  0.47279310879649883  0.06934993078328845  0.8138514777088617  1.0000
  N   N1        1.0  0.5878175428737428  0.3227706044239916  0.8221557439365695  1.0000
  N   N2        1.0  0.41218245697471606  0.8227706041071202  0.17784425610830865  1.0000
  N   N3        1.0  0.9951480635562499  0.9262681263518  0.6887196875338577  1.0000
  N   N4        1.0  0.004851936292208928  0.42626812600126146  0.3112803125110204  1.0000
  N   N5        1.0  0.9396253987003009  0.6791032722875998  0.22170891580397534  1.0000
  N   N6        1.0  0.06037460114815791  0.1791032719370613  0.7782910842409028  1.0000
  N   N7        1.0  0.9413119652314166  0.7079999138238472  0.43150261765627573  1.0000
  N   N8        1.0  0.058688034615051704  0.2079999134733088  0.5684973814706086  1.0000
  N   N9        1.0  0.4985396969110039  0.6001435951222541  0.4003089727617268  1.0000
  N   N10       1.0  0.5014603029374549  0.1001435954391255  0.5996910272831514  1.0000
  O   O1        1.0  0.6775689444917022  0.3157089862073829  0.7259199047082575  1.0000
  O   O2        1.0  0.32243105535675665  0.8157089865579213  0.27408009533662064  1.0000
  O   O3        1.0  0.6666032333422407  0.275119049461542  0.9180526181942271  1.0000
  O   O4        1.0  0.33339676650621825  0.7751190491446707  0.08194738185065113  1.0000
  O   O5        1.0  0.842205193034451  0.5747987193641962  0.8259779719382593  1.0000
  O   O6        1.0  0.15779480872017893  0.0747987196810676  0.17402202834234237  1.0000
  O   O7        1.0  0.9049909948605191  0.9244602718603426  0.7837253316045782  1.0000
  O   O8        1.0  0.09500900498793971  0.42446027150980414  0.21627466844030002  1.0000
  O   O9        1.0  0.9156581407274534  0.9800184953887198  0.5982170995578102  1.0000
  O   O10       1.0  0.08434185912100538  0.4800184957055911  0.4017829004870679  1.0000
  O   O11       1.0  0.7270990344657939  0.679225983600926  0.6438906724933955  1.0000
  O   O12       1.0  0.27290096538266495  0.17922598325038758  0.3561093275514827  1.0000
