data_image0
_chemical_formula_structural       C24N6P2S6
_chemical_formula_sum              "C24 N6 P2 S6"
_cell_length_a       10.84421331709775
_cell_length_b       6.334135296583152
_cell_length_c       9.90919776755604
_cell_angle_alpha    65.69247934723357
_cell_angle_beta     130.095150263253
_cell_angle_gamma    98.23464931593176

_space_group_name_H-M_alt    "P 1"
_space_group_IT_number       1

loop_
  _space_group_symop_operation_xyz
  'x, y, z'

loop_
  _atom_site_type_symbol
  _atom_site_label
  _atom_site_symmetry_multiplicity
  _atom_site_fract_x
  _atom_site_fract_y
  _atom_site_fract_z
  _atom_site_occupancy
  C   C1        1.0  0.660173104786763  0.964402081865471  0.764121810544895  1.0000
  C   C2        1.0  0.33982689512178493  0.035597918260892814  0.23587818915099312  1.0000
  C   C3        1.0  0.830112591940734  0.9844454315129577  0.8806039639283649  1.0000
  C   C4        1.0  0.16988740796781393  0.015554568613405822  0.11939603576752317  1.0000
  C   C5        1.0  0.9295267094652448  0.9542324525579583  0.8375792750484448  1.0000
  C   C6        1.0  0.0704732904433031  0.04576754756840517  0.16242072464744334  1.0000
  C   C7        1.0  0.8613237716885663  0.8645586788731047  0.696892148096092  1.0000
  C   C8        1.0  0.13867622821998143  0.1354413212532588  0.3031078515997961  1.0000
  C   C9        1.0  0.6955004514144072  0.8345851559748795  0.5920140240186654  1.0000
  C   C10       1.0  0.30449954911014937  0.16541484353391847  0.407985977103306  1.0000
  C   C11       1.0  0.5829881513629068  0.954478339328164  0.5820642036008737  1.0000
  C   C12       1.0  0.41701184854564094  0.04552166079819964  0.4179357960950143  1.0000
  C   C13       1.0  0.5796992259796446  0.9104072762577377  0.8448304123451479  1.0000
  C   C14       1.0  0.420300773928903  0.08959272386862575  0.15516958735074016  1.0000
  C   C15       1.0  0.7855924333119852  0.6108297389883908  0.517470654064719  1.0000
  C   C16       1.0  0.2144075665965626  0.3891702611379727  0.4825293456311691  1.0000
  C   C17       1.0  0.6631692864835786  0.6704252528588811  0.5150392069522391  1.0000
  C   C18       1.0  0.33683071342496923  0.32957474726748254  0.48496079274364895  1.0000
  C   C19       1.0  0.5329926303133539  0.5410366237168482  0.45355809058947183  1.0000
  C   C20       1.0  0.46700736959519396  0.4589633764095153  0.5464419091064162  1.0000
  C   C21       1.0  0.48919563944780864  0.48951003124665954  0.30066763946760816  1.0000
  C   C22       1.0  0.5108043610767478  0.5104899682621382  0.6993323616543633  1.0000
  C   C23       1.0  0.6227189081771882  0.4193725262705095  0.3261791678350751  1.0000
  C   C24       1.0  0.3772810917313597  0.5806274738558541  0.673820831860813  1.0000
  N   N1        1.0  0.6303160509011401  0.9551803560259113  0.9890237500386169  1.0000
  N   N2        1.0  0.36968394900740775  0.04481964410045216  0.010976249657271323  1.0000
  N   N3        1.0  0.907425808910603  0.021307761110019554  0.04484744181312255  1.0000
  N   N4        1.0  0.09257419161395349  0.9786922383987783  0.9551525593088488  1.0000
  N   N5        1.0  0.7755637500330378  0.46571810629666205  0.44433811989839145  1.0000
  N   N6        1.0  0.22443624987551014  0.5342818938297015  0.5556618797974967  1.0000
  P   P1        1.0  0.7861217612334186  0.08589173358127143  0.09578612836149698  1.0000
  P   P2        1.0  0.21387823929113778  0.9141082659275264  0.9042138727604745  1.0000
  S   S1        1.0  0.40629620895034724  0.759661864975313  0.7865163266778863  1.0000
  S   S2        1.0  0.5937037909582007  0.24033813515105074  0.21348367301800172  1.0000
  S   S3        1.0  0.711737684127452  0.46592780350298535  0.9133848917314076  1.0000
  S   S4        1.0  0.28826231578109585  0.5340721966233782  0.08661510796448053  1.0000
  S   S5        1.0  0.044088761746428715  0.2574891335287202  0.35582345667244875  1.0000
  S   S6        1.0  0.955911238162119  0.7425108665976434  0.6441765430234393  1.0000
