data_image0
_chemical_formula_structural       C16S12I8
_chemical_formula_sum              "C16 S12 I8"
_cell_length_a       5.716982713363221
_cell_length_b       5.716982713363221
_cell_length_c       30.17601490558071
_cell_angle_alpha    90.0
_cell_angle_beta     90.0
_cell_angle_gamma    90.0

_space_group_name_H-M_alt    "P 1"
_space_group_IT_number       1

loop_
  _space_group_symop_operation_xyz
  'x, y, z'

loop_
  _atom_site_type_symbol
  _atom_site_label
  _atom_site_symmetry_multiplicity
  _atom_site_fract_x
  _atom_site_fract_y
  _atom_site_fract_z
  _atom_site_occupancy
  C   C1        1.0  0.32086715877453703  0.9503979288409641  0.05352714946138498  1.0000
  C   C2        1.0  0.5496020711511942  0.32086715877453703  0.3035271492494558  1.0000
  C   C3        1.0  0.17913284005673277  0.5496020711511942  0.5535271493689156  1.0000
  C   C4        1.0  0.9503979288409641  0.17913284005673277  0.8035271494883754  1.0000
  C   C5        1.0  0.049602070570749945  0.679132840637177  0.19647285065807485  1.0000
  C   C6        1.0  0.8208671593549811  0.049602070570749945  0.4464728507775346  1.0000
  C   C7        1.0  0.45039792826051983  0.8208671593549811  0.6964728505656054  1.0000
  C   C8        1.0  0.679132840637177  0.45039792826051983  0.9464728506850653  1.0000
  C   C9        1.0  0.47094591587738155  0.10007317822786135  0.059619097671749985  1.0000
  C   C10       1.0  0.3999268206034084  0.47094591587738155  0.3096190974598208  1.0000
  C   C11       1.0  0.029054084703062654  0.3999268206034084  0.5596190975792806  1.0000
  C   C12       1.0  0.10007317822786135  0.029054084703062654  0.8096190976987404  1.0000
  C   C13       1.0  0.8999268211838526  0.5290540852835068  0.19038090244770983  1.0000
  C   C14       1.0  0.9709459147086514  0.8999268211838526  0.44038090256716966  1.0000
  C   C15       1.0  0.6000731788083056  0.9709459147086514  0.6903809023552404  1.0000
  C   C16       1.0  0.5290540852835068  0.6000731788083056  0.9403809024747003  1.0000
  S   S1        1.0  0.6667671097010394  0.30734776508818956  0.07001370713166216  1.0000
  S   S2        1.0  0.1926522337430802  0.6667671097010394  0.320013707251122  1.0000
  S   S3        1.0  0.8332328902911188  0.1926522337430802  0.5700137070391929  1.0000
  S   S4        1.0  0.30734776508818956  0.8332328902911188  0.8200137071586526  1.0000
  S   S5        1.0  0.6926522343235243  0.3332328897106747  0.17998629298779767  1.0000
  S   S6        1.0  0.16676711086976953  0.6926522343235243  0.4299862927758684  1.0000
  S   S7        1.0  0.8073477656686339  0.16676711086976953  0.6799862928953283  1.0000
  S   S8        1.0  0.3332328897106747  0.8073477656686339  0.9299862930147882  1.0000
  S   S9        1.0  0.5244007145574041  0.4755992848543099  0.1249999998940354  1.0000
  S   S10       1.0  0.024400715726134323  0.5244007145574041  0.3750000000134952  1.0000
  S   S11       1.0  0.9755992854347542  0.024400715726134323  0.6250000001329551  1.0000
  S   S12       1.0  0.4755992848543099  0.9755992854347542  0.8749999999210258  1.0000
  I   I1        1.0  0.07291957504533984  0.7141467019756242  0.04503990385253439  1.0000
  I   I2        1.0  0.7858532980165338  0.07291957504533984  0.29503990397199426  1.0000
  I   I3        1.0  0.42708042378593  0.7858532980165338  0.5450399040914541  1.0000
  I   I4        1.0  0.7141467019756242  0.42708042378593  0.7950399038795248  1.0000
  I   I5        1.0  0.2858532974360897  0.9270804243663741  0.2049600959355364  1.0000
  I   I6        1.0  0.5729195756257841  0.2858532974360897  0.45496009605499627  1.0000
  I   I7        1.0  0.21414670139518008  0.5729195756257841  0.704960096174456  1.0000
  I   I8        1.0  0.9270804243663741  0.21414670139518008  0.954960095962527  1.0000
