data_image0
_chemical_formula_structural       H120C80N40O8F4Br20
_chemical_formula_sum              "H120 C80 N40 O8 F4 Br20"
_cell_length_a       9.365326759624306
_cell_length_b       19.39856675695167
_cell_length_c       16.58568645977551
_cell_angle_alpha    90.0
_cell_angle_beta     90.0
_cell_angle_gamma    90.0

_space_group_name_H-M_alt    "P 1"
_space_group_IT_number       1

loop_
  _space_group_symop_operation_xyz
  'x, y, z'

loop_
  _atom_site_type_symbol
  _atom_site_label
  _atom_site_symmetry_multiplicity
  _atom_site_fract_x
  _atom_site_fract_y
  _atom_site_fract_z
  _atom_site_occupancy
  H   H1        1.0  0.8985363667479312  0.7500000001178565  0.3245443083139567  1.0000
  H   H2        1.0  0.6014636333122418  0.2500000000392855  0.8245443083207243  1.0000
  H   H3        1.0  0.10146363329218418  0.2500000000392855  0.6754556916995785  1.0000
  H   H4        1.0  0.39853636672787357  0.7500000001178565  0.1754556916928109  1.0000
  H   H5        1.0  0.8463379787421281  0.7500000001178565  0.2172264650448942  1.0000
  H   H6        1.0  0.653662021318045  0.2500000000392855  0.7172264650516619  1.0000
  H   H7        1.0  0.15366202129798726  0.2500000000392855  0.782773534968641  1.0000
  H   H8        1.0  0.34633797872207045  0.7500000001178565  0.2827735349618734  1.0000
  H   H9        1.0  0.9363658775694216  0.6661373957109091  0.12604517666905754  1.0000
  H   H10       1.0  0.5636341224907516  0.33386260444623295  0.6260451766758252  1.0000
  H   H11       1.0  0.0636341224706939  0.16613739563233804  0.8739548233444776  1.0000
  H   H12       1.0  0.4363658775493638  0.833862604009302  0.37395482333771  1.0000
  H   H13       1.0  0.0636341224706939  0.33386260444623295  0.8739548233444776  1.0000
  H   H14       1.0  0.4363658775493638  0.6661373957109091  0.37395482333771  1.0000
  H   H15       1.0  0.9363658775694216  0.833862604009302  0.12604517666905754  1.0000
  H   H16       1.0  0.5636341224907516  0.16613739563233804  0.6260451766758252  1.0000
  H   H17       1.0  0.15551979630643745  0.6834675074770026  0.35125717673061896  1.0000
  H   H18       1.0  0.34448020371362026  0.31653249268013944  0.8512571767373865  1.0000
  H   H19       1.0  0.844480203733678  0.1834675073984316  0.6487428232829162  1.0000
  H   H20       1.0  0.6555197963264953  0.8165324927587104  0.14874282327614866  1.0000
  H   H21       1.0  0.844480203733678  0.31653249268013944  0.6487428232829162  1.0000
  H   H22       1.0  0.6555197963264953  0.6834675074770026  0.14874282327614866  1.0000
  H   H23       1.0  0.15551979630643745  0.8165324927587104  0.35125717673061896  1.0000
  H   H24       1.0  0.34448020371362026  0.1834675073984316  0.8512571767373865  1.0000
  H   H25       1.0  0.23730853146325837  0.5590560326377528  0.27473045574875016  1.0000
  H   H26       1.0  0.26269146855679937  0.4409439675193892  0.7747304557555178  1.0000
  H   H27       1.0  0.7626914685768571  0.05905603255918183  0.7252695442647851  1.0000
  H   H28       1.0  0.7373085314833161  0.9409439675979603  0.22526954425801746  1.0000
  H   H29       1.0  0.7626914685768571  0.4409439675193892  0.7252695442647851  1.0000
  H   H30       1.0  0.7373085314833161  0.5590560326377528  0.22526954425801746  1.0000
  H   H31       1.0  0.23730853146325837  0.9409439675979603  0.27473045574875016  1.0000
  H   H32       1.0  0.26269146855679937  0.05905603255918183  0.7747304557555178  1.0000
  H   H33       1.0  0.020955877465600892  0.5409039518983956  0.08414800577502841  1.0000
  H   H34       1.0  0.47904412255445683  0.45909604825874656  0.584148005781796  1.0000
  H   H35       1.0  0.9790441225745146  0.04090395181982449  0.9158519942385068  1.0000
  H   H36       1.0  0.5209558774856586  0.9590960483373177  0.4158519942317392  1.0000
  H   H37       1.0  0.9790441225745146  0.45909604825874656  0.9158519942385068  1.0000
  H   H38       1.0  0.5209558774856586  0.5409039518983956  0.4158519942317392  1.0000
  H   H39       1.0  0.020955877465600892  0.9590960483373177  0.08414800577502841  1.0000
  H   H40       1.0  0.47904412255445683  0.04090395181982449  0.584148005781796  1.0000
  H   H41       1.0  0.13912410783329338  0.4954713196301292  0.15122850453510558  1.0000
  H   H42       1.0  0.3608758921867643  0.5045286805270128  0.6512285045418732  1.0000
  H   H43       1.0  0.8608758922068221  0.9954713197087002  0.8487714954784297  1.0000
  H   H44       1.0  0.639124107853351  0.004528680448441796  0.348771495471662  1.0000
  H   H45       1.0  0.8608758922068221  0.5045286805270128  0.8487714954784297  1.0000
  H   H46       1.0  0.639124107853351  0.4954713196301292  0.348771495471662  1.0000
  H   H47       1.0  0.13912410783329338  0.004528680448441796  0.15122850453510558  1.0000
  H   H48       1.0  0.3608758921867643  0.9954713197087002  0.6512285045418732  1.0000
  H   H49       1.0  0.1221224373004024  0.5957380746110341  0.9644159124069503  1.0000
  H   H50       1.0  0.37787756271965534  0.40426192503060593  0.46441591240018276  1.0000
  H   H51       1.0  0.877877562739713  0.0957380750479651  0.03558408760658486  1.0000
  H   H52       1.0  0.6221224373204601  0.9042619251091769  0.5355840876133525  1.0000
  H   H53       1.0  0.877877562739713  0.40426192503060593  0.03558408760658486  1.0000
  H   H54       1.0  0.6221224373204601  0.5957380746110341  0.5355840876133525  1.0000
  H   H55       1.0  0.1221224373004024  0.9042619251091769  0.9644159124069503  1.0000
  H   H56       1.0  0.37787756271965534  0.0957380750479651  0.46441591240018276  1.0000
  H   H57       1.0  0.4135292765967902  0.5411240959973646  0.14964991325620386  1.0000
  H   H58       1.0  0.08647072342326756  0.45887590364427555  0.6496499132629714  1.0000
  H   H59       1.0  0.5864707234433253  0.04112409643429553  0.8503500867573314  1.0000
  H   H60       1.0  0.9135292766168478  0.9588759037228466  0.3503500867505637  1.0000
  H   H61       1.0  0.5864707234433253  0.45887590364427555  0.8503500867573314  1.0000
  H   H62       1.0  0.9135292766168478  0.5411240959973646  0.3503500867505637  1.0000
  H   H63       1.0  0.4135292765967902  0.9588759037228466  0.14964991325620386  1.0000
  H   H64       1.0  0.08647072342326756  0.04112409643429553  0.6496499132629714  1.0000
  H   H65       1.0  0.5694058677151722  0.587882851495368  0.01584321219608758  1.0000
  H   H66       1.0  0.9305941323450009  0.41211714814627204  0.5158432122028551  1.0000
  H   H67       1.0  0.4305941323249432  0.08788285141679694  0.9841567878174475  1.0000
  H   H68       1.0  0.0694058676951145  0.912117148224843  0.48415678781068  1.0000
  H   H69       1.0  0.4305941323249432  0.41211714814627204  0.9841567878174475  1.0000
  H   H70       1.0  0.0694058676951145  0.587882851495368  0.48415678781068  1.0000
  H   H71       1.0  0.5694058677151722  0.912117148224843  0.01584321219608758  1.0000
  H   H72       1.0  0.9305941323450009  0.08788285141679694  0.5158432122028551  1.0000
  H   H73       1.0  0.4728827027256505  0.5920881900145534  0.8588825940094861  1.0000
  H   H74       1.0  0.02711729729440725  0.4079118101425886  0.35888259400271855  1.0000
  H   H75       1.0  0.527117297314465  0.09208818993598243  0.1411174060040491  1.0000
  H   H76       1.0  0.9728827027457082  0.9079118097056577  0.6411174060108167  1.0000
  H   H77       1.0  0.527117297314465  0.4079118101425886  0.1411174060040491  1.0000
  H   H78       1.0  0.9728827027457082  0.5920881900145534  0.6411174060108167  1.0000
  H   H79       1.0  0.4728827027256505  0.9079118097056577  0.8588825940094861  1.0000
  H   H80       1.0  0.02711729729440725  0.09208818993598243  0.35888259400271855  1.0000
  H   H81       1.0  0.291371842119203  0.6166969322985125  0.8483320382381353  1.0000
  H   H82       1.0  0.20862815790085476  0.3833030678586295  0.34833203823136766  1.0000
  H   H83       1.0  0.7086281579209125  0.11669693221994153  0.15166796177539993  1.0000
  H   H84       1.0  0.7913718421392607  0.8833030679372005  0.6516679617821676  1.0000
  H   H85       1.0  0.7086281579209125  0.3833030678586295  0.15166796177539993  1.0000
  H   H86       1.0  0.7913718421392607  0.6166969322985125  0.6516679617821676  1.0000
  H   H87       1.0  0.291371842119203  0.8833030679372005  0.8483320382381353  1.0000
  H   H88       1.0  0.20862815790085476  0.11669693221994153  0.34833203823136766  1.0000
  H   H89       1.0  0.6617803488416273  0.6776115861904832  0.8956063197037583  1.0000
  H   H90       1.0  0.8382196512185458  0.32238841345115676  0.39560631969699067  1.0000
  H   H91       1.0  0.3382196511984882  0.17761158662741425  0.1043936803097769  1.0000
  H   H92       1.0  0.16178034882156955  0.8223884135297278  0.6043936803165445  1.0000
  H   H93       1.0  0.3382196511984882  0.32238841345115676  0.1043936803097769  1.0000
  H   H94       1.0  0.16178034882156955  0.6776115861904832  0.6043936803165445  1.0000
  H   H95       1.0  0.6617803488416273  0.8223884135297278  0.8956063197037583  1.0000
  H   H96       1.0  0.8382196512185458  0.17761158662741425  0.39560631969699067  1.0000
  H   H97       1.0  0.23344465666969463  0.7500000001178565  0.8814923509773069  1.0000
  H   H98       1.0  0.26655534335036307  0.2500000000392855  0.3814923509705393  1.0000
  H   H99       1.0  0.7665553433704207  0.2500000000392855  0.11850764903622829  1.0000
  H   H100      1.0  0.7334446566897523  0.7500000001178565  0.6185076490429959  1.0000
  H   H101      1.0  0.47027795431418357  0.7500000001178565  0.6577992829214299  1.0000
  H   H102      1.0  0.02972204570587416  0.2500000000392855  0.15779928291466233  1.0000
  H   H103      1.0  0.5297220457259318  0.2500000000392855  0.34220071709210526  1.0000
  H   H104      1.0  0.9702779543342412  0.7500000001178565  0.8422007170988729  1.0000
  H   H105      1.0  0.42252230611532227  0.6639961158668651  0.6064234509914964  1.0000
  H   H106      1.0  0.07747769390473545  0.3360038842902769  0.10642345098472884  1.0000
  H   H107      1.0  0.5774776939247932  0.16399611578829415  0.39357654902203876  1.0000
  H   H108      1.0  0.9225223061353799  0.8360038843688478  0.8935765490288063  1.0000
  H   H109      1.0  0.5774776939247932  0.3360038842902769  0.39357654902203876  1.0000
  H   H110      1.0  0.9225223061353799  0.6639961158668651  0.8935765490288063  1.0000
  H   H111      1.0  0.42252230611532227  0.8360038843688478  0.6064234509914964  1.0000
  H   H112      1.0  0.07747769390473545  0.16399611578829415  0.10642345098472884  1.0000
  H   H113      1.0  0.5156590628337809  0.6530250367832142  0.6891318950059727  1.0000
  H   H114      1.0  0.9843409372263923  0.34697496337392786  0.18913189499920513  1.0000
  H   H115      1.0  0.48434093720633453  0.15302503670464318  0.31086810500756246  1.0000
  H   H116      1.0  0.015659062813723226  0.8469749629369969  0.8108681050143302  1.0000
  H   H117      1.0  0.48434093720633453  0.34697496337392786  0.31086810500756246  1.0000
  H   H118      1.0  0.015659062813723226  0.6530250367832142  0.8108681050143302  1.0000
  H   H119      1.0  0.5156590628337809  0.8469749629369969  0.6891318950059727  1.0000
  H   H120      1.0  0.9843409372263923  0.15302503670464318  0.18913189499920513  1.0000
  C   C1        1.0  0.9352846947917256  0.7500000001178565  0.2614477972025218  1.0000
  C   C2        1.0  0.5647153052684475  0.2500000000392855  0.7614477972092895  1.0000
  C   C3        1.0  0.06471530524838977  0.2500000000392855  0.7385522022080838  1.0000
  C   C4        1.0  0.4352846947716679  0.7500000001178565  0.23855220280424574  1.0000
  C   C5        1.0  0.00617618386251804  0.6521821904943697  0.1763370251266396  1.0000
  C   C6        1.0  0.4938238161575397  0.3478178091472704  0.6763370251334072  1.0000
  C   C7        1.0  0.9938238161775973  0.1521821904157986  0.8236629748868955  1.0000
  C   C8        1.0  0.5061761838825758  0.8478178092258415  0.323662974880128  1.0000
  C   C9        1.0  0.9938238161775973  0.3478178091472704  0.8236629748868955  1.0000
  C   C10       1.0  0.5061761838825758  0.6521821904943697  0.323662974880128  1.0000
  C   C11       1.0  0.00617618386251804  0.8478178092258415  0.1763370251266396  1.0000
  C   C12       1.0  0.4938238161575397  0.1521821904157986  0.6763370251334072  1.0000
  C   C13       1.0  0.11634696236094925  0.6570691979309384  0.29661114611873507  1.0000
  C   C14       1.0  0.38365303765910846  0.34293080171070156  0.7966111461255028  1.0000
  C   C15       1.0  0.8836530376791663  0.15706919785236745  0.7033888538948001  1.0000
  C   C16       1.0  0.616346962381007  0.8429308017892725  0.2033888538880325  1.0000
  C   C17       1.0  0.8836530376791663  0.34293080171070156  0.7033888538948001  1.0000
  C   C18       1.0  0.616346962381007  0.6570691979309384  0.2033888538880325  1.0000
  C   C19       1.0  0.11634696236094925  0.8429308017892725  0.29661114611873507  1.0000
  C   C20       1.0  0.38365303765910846  0.15706919785236745  0.7966111461255028  1.0000
  C   C21       1.0  0.16301924206019325  0.5994642797944194  0.25739519074797357  1.0000
  C   C22       1.0  0.3369807579598645  0.40053571984722053  0.7573951907547412  1.0000
  C   C23       1.0  0.8369807579799222  0.09946427971584845  0.7426048092655616  1.0000
  C   C24       1.0  0.663019242080251  0.9005357199257916  0.24260480925879402  1.0000
  C   C25       1.0  0.8369807579799222  0.40053571984722053  0.7426048092655616  1.0000
  C   C26       1.0  0.663019242080251  0.5994642797944194  0.24260480925879402  1.0000
  C   C27       1.0  0.16301924206019325  0.9005357199257916  0.25739519074797357  1.0000
  C   C28       1.0  0.3369807579598645  0.09946427971584845  0.7573951907547412  1.0000
  C   C29       1.0  0.11607406104467927  0.5449903512181593  0.12231187143926378  1.0000
  C   C30       1.0  0.3839259389753784  0.45500964893898277  0.6223118714460314  1.0000
  C   C31       1.0  0.8839259389954363  0.04499035113958828  0.8776881285742714  1.0000
  C   C32       1.0  0.6160740610647369  0.9550096485020517  0.37768812856750383  1.0000
  C   C33       1.0  0.8839259389954363  0.45500964893898277  0.8776881285742714  1.0000
  C   C34       1.0  0.6160740610647369  0.5449903512181593  0.37768812856750383  1.0000
  C   C35       1.0  0.11607406104467927  0.9550096485020517  0.12231187143926378  1.0000
  C   C36       1.0  0.3839259389753784  0.04499035113958828  0.6223118714460314  1.0000
  C   C37       1.0  0.2229974750057497  0.5881640439189291  0.9957231544230899  1.0000
  C   C38       1.0  0.27700252501430805  0.41183595623821295  0.49572315441632225  1.0000
  C   C39       1.0  0.7770025250343657  0.08816404384035809  0.004276845590445348  1.0000
  C   C40       1.0  0.7229974750258074  0.9118359563167839  0.5042768455972129  1.0000
  C   C41       1.0  0.7770025250343657  0.41183595623821295  0.004276845590445348  1.0000
  C   C42       1.0  0.7229974750258074  0.5881640439189291  0.5042768455972129  1.0000
  C   C43       1.0  0.2229974750057497  0.9118359563167839  0.9957231544230899  1.0000
  C   C44       1.0  0.27700252501430805  0.08816404384035809  0.49572315441632225  1.0000
  C   C45       1.0  0.37943146578929937  0.5608024183591546  0.09156285111762295  1.0000
  C   C46       1.0  0.12056853423075832  0.4391975817979874  0.5915628511243906  1.0000
  C   C47       1.0  0.620568534250816  0.06080241828058362  0.9084371488959122  1.0000
  C   C48       1.0  0.879431465809357  0.9391975818765584  0.4084371488891446  1.0000
  C   C49       1.0  0.620568534250816  0.4391975817979874  0.9084371488959122  1.0000
  C   C50       1.0  0.879431465809357  0.5608024183591546  0.4084371488891446  1.0000
  C   C51       1.0  0.37943146578929937  0.9391975818765584  0.09156285111762295  1.0000
  C   C52       1.0  0.12056853423075832  0.06080241828058362  0.5915628511243906  1.0000
  C   C53       1.0  0.45496416188802874  0.5824829046172069  0.026027083114523248  1.0000
  C   C54       1.0  0.04503583813202901  0.4175170955399351  0.5260270831212908  1.0000
  C   C55       1.0  0.5450358381520868  0.08248290453863588  0.973972916899012  1.0000
  C   C56       1.0  0.9549641619080864  0.9175170951030042  0.4739729168922443  1.0000
  C   C57       1.0  0.5450358381520868  0.4175170955399351  0.973972916899012  1.0000
  C   C58       1.0  0.9549641619080864  0.5824829046172069  0.4739729168922443  1.0000
  C   C59       1.0  0.45496416188802874  0.9175170951030042  0.026027083114523248  1.0000
  C   C60       1.0  0.04503583813202901  0.08248290453863588  0.5260270831212908  1.0000
  C   C61       1.0  0.3870520690882347  0.6228806458430718  0.886144209686147  1.0000
  C   C62       1.0  0.11294793093182302  0.3771193543140702  0.3861442096793795  1.0000
  C   C63       1.0  0.6129479309518807  0.12288064576450085  0.11385579032738809  1.0000
  C   C64       1.0  0.8870520691082925  0.8771193543926412  0.6138557903341557  1.0000
  C   C65       1.0  0.6129479309518807  0.3771193543140702  0.11385579032738809  1.0000
  C   C66       1.0  0.8870520691082925  0.6228806458430718  0.6138557903341557  1.0000
  C   C67       1.0  0.3870520690882347  0.8771193543926412  0.886144209686147  1.0000
  C   C68       1.0  0.11294793093182302  0.12288064576450085  0.3861442096793795  1.0000
  C   C69       1.0  0.5758675974073915  0.7149376422374085  0.8908324298685666  1.0000
  C   C70       1.0  0.9241324026527817  0.28506235791973344  0.3908324298617989  1.0000
  C   C71       1.0  0.42413240263272395  0.21493764215883757  0.10916757014496867  1.0000
  C   C72       1.0  0.07586759738733377  0.7850623579983045  0.6091675701517363  1.0000
  C   C73       1.0  0.42413240263272395  0.28506235791973344  0.10916757014496867  1.0000
  C   C74       1.0  0.07586759738733377  0.7149376422374085  0.6091675701517363  1.0000
  C   C75       1.0  0.5758675974073915  0.7850623579983045  0.8908324298685666  1.0000
  C   C76       1.0  0.9241324026527817  0.21493764215883757  0.3908324298617989  1.0000
  C   C77       1.0  0.34883188102782803  0.7500000001178565  0.8846957788323345  1.0000
  C   C78       1.0  0.1511681189922297  0.2500000000392855  0.38469577882556694  1.0000
  C   C79       1.0  0.6511681190122873  0.2500000000392855  0.11530422118120064  1.0000
  C   C80       1.0  0.8488318810478858  0.7500000001178565  0.6153042211879682  1.0000
  N   N1        1.0  0.018147869728660494  0.6880762371383299  0.24528868852468738  1.0000
  N   N2        1.0  0.4818521302913972  0.31192376250331016  0.7452886885314549  1.0000
  N   N3        1.0  0.981852130311455  0.18807623757526087  0.7547113114888478  1.0000
  N   N4        1.0  0.5181478697487182  0.8119237625818811  0.2547113114820802  1.0000
  N   N5        1.0  0.981852130311455  0.31192376250331016  0.7547113114888478  1.0000
  N   N6        1.0  0.5181478697487182  0.6880762371383299  0.2547113114820802  1.0000
  N   N7        1.0  0.018147869728660494  0.8119237625818811  0.24528868852468738  1.0000
  N   N8        1.0  0.4818521302913972  0.18807623757526087  0.7452886885314549  1.0000
  N   N9        1.0  0.09214895135539508  0.5970393836364009  0.18364221085373308  1.0000
  N   N10       1.0  0.40785104866466265  0.4029606160052392  0.6836422108605007  1.0000
  N   N11       1.0  0.9078510486847203  0.09703938355782982  0.8163577891598022  1.0000
  N   N12       1.0  0.5921489513754529  0.9029606160838102  0.3163577891530345  1.0000
  N   N13       1.0  0.9078510486847203  0.4029606160052392  0.8163577891598022  1.0000
  N   N14       1.0  0.5921489513754529  0.5970393836364009  0.3163577891530345  1.0000
  N   N15       1.0  0.09214895135539508  0.9029606160838102  0.18364221085373308  1.0000
  N   N16       1.0  0.40785104866466265  0.09703938355782982  0.6836422108605007  1.0000
  N   N17       1.0  0.2361413388729126  0.5641596524690747  0.07092919384754383  1.0000
  N   N18       1.0  0.26385866114714507  0.4358403471725653  0.5709291938543115  1.0000
  N   N19       1.0  0.7638586611672028  0.06415965290600571  0.9290708061659914  1.0000
  N   N20       1.0  0.7361413388929704  0.9358403472511364  0.42907080615922377  1.0000
  N   N21       1.0  0.7638586611672028  0.4358403471725653  0.9290708061659914  1.0000
  N   N22       1.0  0.7361413388929704  0.5641596524690747  0.42907080615922377  1.0000
  N   N23       1.0  0.2361413388729126  0.9358403472511364  0.07092919384754383  1.0000
  N   N24       1.0  0.26385866114714507  0.06415965290600571  0.5709291938543115  1.0000
  N   N25       1.0  0.3553909516909924  0.598091419091169  0.9667386604037506  1.0000
  N   N26       1.0  0.14460904832906535  0.40190858106597305  0.4667386603969829  1.0000
  N   N27       1.0  0.644609048349123  0.09809141901259796  0.03326133960978464  1.0000
  N   N28       1.0  0.8553909517110502  0.9019085811445442  0.5332613396165522  1.0000
  N   N29       1.0  0.644609048349123  0.40190858106597305  0.03326133960978464  1.0000
  N   N30       1.0  0.8553909517110502  0.598091419091169  0.5332613396165522  1.0000
  N   N31       1.0  0.3553909516909924  0.9019085811445442  0.9667386604037506  1.0000
  N   N32       1.0  0.14460904832906535  0.09809141901259796  0.4667386603969829  1.0000
  N   N33       1.0  0.4340528883119366  0.6942349179056699  0.8859791824497624  1.0000
  N   N34       1.0  0.0659471117081211  0.3057650817359701  0.3859791824429948  1.0000
  N   N35       1.0  0.5659471106604105  0.1942349183426009  0.11402081756377279  1.0000
  N   N36       1.0  0.9340528883319943  0.8057650818145411  0.6140208175705403  1.0000
  N   N37       1.0  0.5659471106604105  0.3057650817359701  0.11402081756377279  1.0000
  N   N38       1.0  0.9340528883319943  0.6942349179056699  0.6140208175705403  1.0000
  N   N39       1.0  0.4340528883119366  0.8057650818145411  0.8859791824497624  1.0000
  N   N40       1.0  0.0659471117081211  0.1942349183426009  0.3859791824429948  1.0000
  O   O1        1.0  0.4622087516115294  0.6880602808048606  0.6560532659525071  1.0000
  O   O2        1.0  0.03779124840852835  0.3119397188367794  0.15605326594573962  1.0000
  O   O3        1.0  0.537791248428586  0.18806028072628958  0.343946734061028  1.0000
  O   O4        1.0  0.962208751631587  0.8119397189153504  0.8439467340677955  1.0000
  O   O5        1.0  0.537791248428586  0.3119397188367794  0.343946734061028  1.0000
  O   O6        1.0  0.962208751631587  0.6880602808048606  0.8439467340677955  1.0000
  O   O7        1.0  0.4622087516115294  0.8119397189153504  0.6560532659525071  1.0000
  O   O8        1.0  0.03779124840852835  0.18806028072628958  0.15605326594573962  1.0000
  F   F1        1.0  0.2239014178384224  0.2500000000392855  0.8843939155351993  1.0000
  F   F2        1.0  0.27609858218163535  0.7500000001178565  0.38439391552843166  1.0000
  F   F3        1.0  0.776098582201693  0.7500000001178565  0.11560608447833594  1.0000
  F   F4        1.0  0.7239014178584801  0.2500000000392855  0.6156060844851035  1.0000
  Br  Br1       1.0  0.22203324169795613  0.7500000001178565  0.05953221064407873  1.0000
  Br  Br2       1.0  0.27796675832210155  0.2500000000392855  0.5595322106508462  1.0000
  Br  Br3       1.0  0.7779667583421592  0.2500000000392855  0.9404677893694564  1.0000
  Br  Br4       1.0  0.7220332417180139  0.7500000001178565  0.4404677893626888  1.0000
  Br  Br5       1.0  0.38384620443763445  0.4385371283654982  0.2620010043321907  1.0000
  Br  Br6       1.0  0.11615379558242325  0.5614628717916439  0.7620010043389583  1.0000
  Br  Br7       1.0  0.616153795602481  0.9385371284440691  0.7379989956813445  1.0000
  Br  Br8       1.0  0.8838462044576922  0.061462871713072846  0.23799899567457689  1.0000
  Br  Br9       1.0  0.616153795602481  0.5614628717916439  0.7379989956813445  1.0000
  Br  Br10      1.0  0.8838462044576922  0.4385371283654982  0.23799899567457689  1.0000
  Br  Br11      1.0  0.38384620443763445  0.061462871713072846  0.2620010043321907  1.0000
  Br  Br12      1.0  0.11615379558242325  0.9385371284440691  0.7620010043389583  1.0000
  Br  Br13      1.0  0.16205480053756108  0.39893248439226847  0.014812692293191059  1.0000
  Br  Br14      1.0  0.3379451994824966  0.6010675152493715  0.5148126922999586  1.0000
  Br  Br15      1.0  0.8379451995025543  0.8989324844708394  0.9851873077203442  1.0000
  Br  Br16      1.0  0.6620548005576188  0.10106751568630254  0.48518730771357654  1.0000
  Br  Br17      1.0  0.8379451995025543  0.6010675152493715  0.9851873077203442  1.0000
  Br  Br18      1.0  0.6620548005576188  0.39893248439226847  0.48518730771357654  1.0000
  Br  Br19      1.0  0.16205480053756108  0.10106751568630254  0.014812692293191059  1.0000
  Br  Br20      1.0  0.3379451994824966  0.8989324844708394  0.5148126922999586  1.0000
