data_image0
_chemical_formula_structural       C148O4P8
_chemical_formula_sum              "C148 O4 P8"
_cell_length_a       14.347867582724406
_cell_length_b       7.720193839461117
_cell_length_c       15.36629008416957
_cell_angle_alpha    90.0
_cell_angle_beta     99.78130812578551
_cell_angle_gamma    90.0

_space_group_name_H-M_alt    "P 1"
_space_group_IT_number       1

loop_
  _space_group_symop_operation_xyz
  'x, y, z'

loop_
  _atom_site_type_symbol
  _atom_site_label
  _atom_site_symmetry_multiplicity
  _atom_site_fract_x
  _atom_site_fract_y
  _atom_site_fract_z
  _atom_site_occupancy
  C   C1        1.0  0.12697405956060737  0.9100412873170042  0.22759349709201632  1.0000
  C   C2        1.0  0.8730259405531058  0.4100412872821033  0.27240650272226535  1.0000
  C   C3        1.0  0.8730259409003065  0.08995871275279757  0.7724065028787588  1.0000
  C   C4        1.0  0.12697405921387692  0.5899587127876984  0.7275934972641276  1.0000
  C   C5        1.0  0.10476596378984106  0.9279972626309188  0.13266134926328652  1.0000
  C   C6        1.0  0.8952340363238721  0.42799726259601795  0.3673386505509951  1.0000
  C   C7        1.0  0.8952340359771417  0.07200273743888289  0.8673386507231066  1.0000
  C   C8        1.0  0.10476596344311066  0.5720027374737837  0.632661349435398  1.0000
  C   C9        1.0  0.1684635198791348  0.9075522125088331  0.0670108982250254  1.0000
  C   C10       1.0  0.8315364802345784  0.40755221247393225  0.43298910158925624  1.0000
  C   C11       1.0  0.831536480581779  0.09244778756096861  0.9329891017457497  1.0000
  C   C12       1.0  0.16846351953240438  0.5924477875958695  0.5670108983971367  1.0000
  C   C13       1.0  0.19251667035117875  0.028440482786546987  0.00963232294504351  1.0000
  C   C14       1.0  0.8074833297625345  0.5284404828214478  0.4903676768692381  1.0000
  C   C15       1.0  0.8074833301097349  0.9715595172832547  0.9903676770257316  1.0000
  C   C16       1.0  0.1925166700044483  0.4715595172483539  0.5096323231171549  1.0000
  C   C17       1.0  0.03669923986494677  0.8950788495334391  0.25936158117716734  1.0000
  C   C18       1.0  0.9633007595548353  0.39507884949853816  0.24063841865273225  1.0000
  C   C19       1.0  0.9633007599020359  0.10492115053636274  0.7406384188092257  1.0000
  C   C20       1.0  0.03669924021214743  0.6049211505712636  0.7593615813336606  1.0000
  C   C21       1.0  0.006250846798272653  0.8898624053822374  0.3405033735826646  1.0000
  C   C22       1.0  0.9937491533154404  0.38986240534733646  0.15949662623161706  1.0000
  C   C23       1.0  0.993749153662641  0.11013759468756439  0.6594966263881104  1.0000
  C   C24       1.0  0.0062508464515422645  0.6101375947224653  0.840503373754776  1.0000
  C   C25       1.0  0.9164079098419771  0.8650986528164928  0.33949300187872156  1.0000
  C   C26       1.0  0.08359209027173599  0.365098652781592  0.16050699793556006  1.0000
  C   C27       1.0  0.08359208992500555  0.13490134725330885  0.6605069981076714  1.0000
  C   C28       1.0  0.9164079094952469  0.6349013472882097  0.839493002050833  1.0000
  C   C29       1.0  0.837831801951287  0.8391548003478895  0.27604829715384016  1.0000
  C   C30       1.0  0.16216819816242603  0.3391548003129886  0.2239517026604415  1.0000
  C   C31       1.0  0.16216819781569564  0.16084519972191227  0.723951702832553  1.0000
  C   C32       1.0  0.8378318022984879  0.6608451997568131  0.7760482973103335  1.0000
  C   C33       1.0  0.8702833324405763  0.8506314357591818  0.194968807492706  1.0000
  C   C34       1.0  0.1297166671158087  0.35063143572428085  0.3050311929973837  1.0000
  C   C35       1.0  0.1297166673264065  0.14936856431061996  0.805031192493687  1.0000
  C   C36       1.0  0.8702833327877769  0.6493685643455208  0.6949688076491993  1.0000
  C   C37       1.0  0.9616346487298428  0.8772937844359564  0.18254251048642578  1.0000
  C   C38       1.0  0.03836535138387024  0.37729378440105554  0.31745748932785584  1.0000
  C   C39       1.0  0.038365351731070946  0.12270621563384532  0.8174574894843494  1.0000
  C   C40       1.0  0.9616346483831124  0.6227062156687462  0.6825425106585372  1.0000
  C   C41       1.0  0.01072266076885841  0.8731249150177443  0.10553799167627816  1.0000
  C   C42       1.0  0.9892773393448548  0.37312491498284334  0.3944620081380035  1.0000
  C   C43       1.0  0.9892773396920553  0.12687508505205755  0.8944620082944968  1.0000
  C   C44       1.0  0.010722660422128005  0.6268750850869584  0.6055379918483896  1.0000
  C   C45       1.0  0.9955345780939996  0.7419727106748185  0.03740697652957237  1.0000
  C   C46       1.0  0.0044654213257824095  0.24197271063991768  0.46259302330032726  1.0000
  C   C47       1.0  0.0044654216729830614  0.25802728939498315  0.9625930234568206  1.0000
  C   C48       1.0  0.9955345784412003  0.758027289429884  0.5374069766860657  1.0000
  C   C49       1.0  0.07830916741777591  0.6561377557786271  0.024940939936609993  1.0000
  C   C50       1.0  0.9216908320020061  0.15613775574372624  0.4750590598932896  1.0000
  C   C51       1.0  0.9216908323492068  0.3438622442911746  0.975059060049783  1.0000
  C   C52       1.0  0.07830916776497655  0.8438622443260755  0.5249409400931033  1.0000
  C   C53       1.0  0.17263535489257895  0.7267649396730227  0.0450758258517811  1.0000
  C   C54       1.0  0.8273646452211342  0.2267649396381218  0.4549241739625005  1.0000
  C   C55       1.0  0.8273646455683349  0.27323506039677903  0.9549241741189939  1.0000
  C   C56       1.0  0.17263535454584852  0.7732350604316799  0.5450758260238925  1.0000
  C   C57       1.0  0.18027708054731684  0.21474286714486449  0.0034760085036213426  1.0000
  C   C58       1.0  0.8197229195663964  0.7147428671797653  0.49652399131066033  1.0000
  C   C59       1.0  0.819722919219666  0.785257131629633  0.9965239914827717  1.0000
  C   C60       1.0  0.1802770808945175  0.28525713289003635  0.5034760086601148  1.0000
  C   C61       1.0  0.09888658407363614  0.319887874754759  0.9928507749881618  1.0000
  C   C62       1.0  0.9011134160405472  0.8198878747896599  0.5071492251547247  1.0000
  C   C63       1.0  0.9011134156933466  0.6801121253150427  0.0071492249982313336  1.0000
  C   C64       1.0  0.09888658442036653  0.18011212528014184  0.4928507748160502  1.0000
  C   C65       1.0  0.12168271188375995  0.49351881302839784  0.0026496362676047993  1.0000
  C   C66       1.0  0.8783172883665562  0.9935188130632987  0.4973503642068669  1.0000
  C   C67       1.0  0.8783172885771537  0.5064811870414039  0.9973503637031702  1.0000
  C   C68       1.0  0.12168271140042662  0.006481187006503013  0.5026496357795261  1.0000
  C   C69       1.0  0.21694422946901193  0.5675937471416995  0.018567839359000318  1.0000
  C   C70       1.0  0.7830557706447012  0.0675937471067987  0.48143216045528126  1.0000
  C   C71       1.0  0.7830557702979708  0.43240625292810214  0.9814321606273927  1.0000
  C   C72       1.0  0.21694422981621259  0.932406252963003  0.5185678395154937  1.0000
  C   C73       1.0  0.29672091038758214  0.4618850010958925  0.006549276572517189  1.0000
  C   C74       1.0  0.7032790890321999  0.9618850011307932  0.49345072325738243  1.0000
  C   C75       1.0  0.7032790893794006  0.538114997678605  0.9934507234138757  1.0000
  C   C76       1.0  0.29672091073478285  0.038114998939008445  0.5065492767290106  1.0000
  C   C77       1.0  0.27100271823974514  0.2852648904672741  0.9986924362933524  1.0000
  C   C78       1.0  0.7289972818744382  0.785264890502175  0.501307563849534  1.0000
  C   C79       1.0  0.7289972815272375  0.7147351096025276  0.0013075636930406681  1.0000
  C   C80       1.0  0.2710027185864756  0.21473510956762673  0.4986924361212409  1.0000
  C   C81       1.0  0.3281677743291736  0.1480370524064166  0.9740223185701413  1.0000
  C   C82       1.0  0.6718322250910788  0.6480370524413175  0.5259776815883631  1.0000
  C   C83       1.0  0.6718322254378092  0.8519629476633852  0.02597768141625172  1.0000
  C   C84       1.0  0.32816777467590397  0.35196294762848424  0.4740223183980299  1.0000
  C   C85       1.0  0.4099557841448186  0.17742293503029585  0.9369504469923394  1.0000
  C   C86       1.0  0.5900442159693648  0.6774229350651967  0.563049553150547  1.0000
  C   C87       1.0  0.5900442156221642  0.8225770650395059  0.06304955299405357  1.0000
  C   C88       1.0  0.409955784491549  0.32257706500460503  0.43695044682022804  1.0000
  C   C89       1.0  0.43148093770733553  0.04825538681370777  0.87376233666125  1.0000
  C   C90       1.0  0.5685190617129168  0.5482553868486086  0.6262376634972544  1.0000
  C   C91       1.0  0.5685190620596471  0.9517446132560939  0.126237663325143  1.0000
  C   C92       1.0  0.43148093805406595  0.45174461322119314  0.3737623364891386  1.0000
  C   C93       1.0  0.3796752909140118  0.8934847082131663  0.8699466564022438  1.0000
  C   C94       1.0  0.6203247090635687  0.39348470817826536  0.6300533430804527  1.0000
  C   C95       1.0  0.620324709546902  0.10651529185663546  0.1300533435685313  1.0000
  C   C96       1.0  0.379675290703414  0.6065152918915363  0.36994665690594036  1.0000
  C   C97       1.0  0.2966426054077911  0.8656024562288008  0.912581604681986  1.0000
  C   C98       1.0  0.7033573947063924  0.3656024561939  0.5874183954609005  1.0000
  C   C99       1.0  0.7033573943591916  0.13439754384100083  0.08741839530440708  1.0000
  C   C100      1.0  0.29664260506059037  0.6343975438759016  0.4125816045254926  1.0000
  C   C101      1.0  0.27244937380264594  0.9934792389274216  0.9661236743792327  1.0000
  C   C102      1.0  0.7275506263115374  0.49347923889252077  0.5338763257636536  1.0000
  C   C103      1.0  0.7275506259643367  0.0065207611423800625  0.033876325607160265  1.0000
  C   C104      1.0  0.27244937414937637  0.506520761177281  0.46612367420712136  1.0000
  C   C105      1.0  0.46275258098685157  0.24720035399178683  0.24145837985487592  1.0000
  C   C106      1.0  0.5372474191268616  0.7472003540266877  0.25854161995940567  1.0000
  C   C107      1.0  0.537247418780131  0.752799646078015  0.758541620131517  1.0000
  C   C108      1.0  0.4627525813340523  0.25279964604311406  0.7414583800113693  1.0000
  C   C109      1.0  0.38522970627512776  0.3606832506934005  0.22069966025959167  1.0000
  C   C110      1.0  0.6147702938385853  0.8606832507283014  0.2793003395546899  1.0000
  C   C111      1.0  0.614770294185786  0.6393167493764013  0.7793003397111834  1.0000
  C   C112      1.0  0.3852297059283974  0.1393167493415004  0.7206996604317031  1.0000
  C   C113      1.0  0.46804986572169655  0.42693265720256407  0.28725799634954124  1.0000
  C   C114      1.0  0.5319501338346885  0.9269326572374649  0.21274200414054842  1.0000
  C   C115      1.0  0.5319501340452861  0.5730673428672376  0.7127420036368517  1.0000
  C   C116      1.0  0.4680498659322943  0.0730673428323368  0.7872579958458445  1.0000
  C   C117      1.0  0.463996457983496  0.06995763982497348  0.2249894194645829  1.0000
  C   C118      1.0  0.5360035421302172  0.5699576398598744  0.2750105803496987  1.0000
  C   C119      1.0  0.5360035417834866  0.9300423602448283  0.7750105805218102  1.0000
  C   C120      1.0  0.4639964583306967  0.43004236020992737  0.7249894196210763  1.0000
  C   C121      1.0  0.31043290670166324  0.8632164163983185  0.24013881979623788  1.0000
  C   C122      1.0  0.6895670928547216  0.36321641636341756  0.25986118069385183  1.0000
  C   C123      1.0  0.6895670930653195  0.13678358367148336  0.7598611801901551  1.0000
  C   C124      1.0  0.31043290691226094  0.6367835837063842  0.7401388192925412  1.0000
  C   C125      1.0  0.34651806255938117  0.7464242413895446  0.30862676376119913  1.0000
  C   C126      1.0  0.6534819376909349  0.24642424135464372  0.1913732367132725  1.0000
  C   C127      1.0  0.6534819372076015  0.2535757586802571  0.6913732362251938  1.0000
  C   C128      1.0  0.346518062769979  0.753575758715158  0.8086267632575025  1.0000
  C   C129      1.0  0.21646947723085486  0.8652834214932467  0.27248955771006855  1.0000
  C   C130      1.0  0.7835305228828583  0.36528342145834575  0.22751044210421303  1.0000
  C   C131      1.0  0.7835305225361279  0.13471657857655508  0.7275104422763244  1.0000
  C   C132      1.0  0.2164694775780555  0.6347165786114559  0.7724895578665619  1.0000
  C   C133      1.0  0.2606693328991479  0.764662343039312  0.34777335768718703  1.0000
  C   C134      1.0  0.7393306672145653  0.26466234300441116  0.15222664212709452  1.0000
  C   C135      1.0  0.7393306668678348  0.2353376570304897  0.652226642299206  1.0000
  C   C136      1.0  0.26066933324634856  0.7353376570653906  0.8477733578436804  1.0000
  C   C137      1.0  0.45583316580461  0.15843972644155532  0.4606710037370529  1.0000
  C   C138      1.0  0.544166833751775  0.6584397264764562  0.03932899675303683  1.0000
  C   C139      1.0  0.5441668339623728  0.8415602736282465  0.5393289962493402  1.0000
  C   C140      1.0  0.4558331660152078  0.34156027359334556  0.9606710032333563  1.0000
  C   C141      1.0  0.3962749804410477  0.006774911496736574  0.5036147852787655  1.0000
  C   C142      1.0  0.6037250196731357  0.5067749115316375  0.9963852148641209  1.0000
  C   C143      1.0  0.603725019325935  0.9932250885730652  0.4963852147076275  1.0000
  C   C144      1.0  0.396274980093847  0.4932250885381643  0.0036147851222720984  1.0000
  C   C145      1.0  0.5482055162193642  0.12477779574343442  0.4625442771788598  1.0000
  C   C146      1.0  0.4517944832004178  0.6247777957783354  0.037455722651039774  1.0000
  C   C147      1.0  0.4517944835476186  0.8752222043263673  0.5374557228075333  1.0000
  C   C148      1.0  0.5482055165665649  0.3752222042914664  0.9625442773353533  1.0000
  O   O1        1.0  0.2881528475494125  0.16638273425653533  0.3285174018597465  1.0000
  O   O2        1.0  0.7118471527009036  0.6663827342914361  0.17148259861472517  1.0000
  O   O3        1.0  0.7118471522175702  0.8336172658132665  0.6714825981266466  1.0000
  O   O4        1.0  0.2881528478966132  0.33361726577836553  0.82851740201624  1.0000
  P   P1        1.0  0.346030098592213  0.014142699298806889  0.16728439623032956  1.0000
  P   P2        1.0  0.653969901658103  0.5141426993337077  0.3327156042441421  1.0000
  P   P3        1.0  0.6539699011747696  0.9858573007709949  0.8327156037560635  1.0000
  P   P4        1.0  0.34603009810887975  0.48585730073609396  0.6672843957422508  1.0000
  P   P5        1.0  0.2826728675519825  0.24523553026903705  0.23832789419609315  1.0000
  P   P6        1.0  0.7173271326983336  0.7452355303039379  0.2616721062783785  1.0000
  P   P7        1.0  0.7173271322150003  0.7547644698007646  0.7616721057903  1.0000
  P   P8        1.0  0.2826728677625802  0.2547644697658638  0.7383278936923964  1.0000
