data_image0
_chemical_formula_structural       H60C60N20O24
_chemical_formula_sum              "H60 C60 N20 O24"
_cell_length_a       12.656718919393715
_cell_length_b       7.717782421271811
_cell_length_c       16.05985610736919
_cell_angle_alpha    90.0
_cell_angle_beta     94.10700896440234
_cell_angle_gamma    90.0

_space_group_name_H-M_alt    "P 1"
_space_group_IT_number       1

loop_
  _space_group_symop_operation_xyz
  'x, y, z'

loop_
  _atom_site_type_symbol
  _atom_site_label
  _atom_site_symmetry_multiplicity
  _atom_site_fract_x
  _atom_site_fract_y
  _atom_site_fract_z
  _atom_site_occupancy
  H   H1        1.0  0.43195903733406843  0.3199948411597003  0.4791939279503179  1.0000
  H   H2        1.0  0.5680409630092281  0.8199948410773055  0.020806072289652873  1.0000
  H   H3        1.0  0.5680409632618856  0.6800051586755101  0.5208060723416975  1.0000
  H   H4        1.0  0.4319590367959435  0.18000515875790493  0.9791939273340016  1.0000
  H   H5        1.0  0.21675433039977623  0.5359297339867738  0.6726272654723354  1.0000
  H   H6        1.0  0.7832456696580529  0.035929734069168565  0.8273727342033637  1.0000
  H   H7        1.0  0.7832456694053955  0.46407026584843664  0.3273727341513189  1.0000
  H   H8        1.0  0.21675433093790114  0.9640702657660418  0.1726272660886518  1.0000
  H   H9        1.0  0.9668800089220634  0.8070036430197322  0.5290317110191337  1.0000
  H   H10       1.0  0.03311999113576575  0.3070036431021269  0.9709682886565655  1.0000
  H   H11       1.0  0.03311999088310839  0.19299635681547825  0.4709682886045207  1.0000
  H   H12       1.0  0.966880008668061  0.6929963567330835  0.029031711589682742  1.0000
  H   H13       1.0  0.04698559636552561  0.7222210041367649  0.3976712697818459  1.0000
  H   H14       1.0  0.953014403979116  0.22222100421915975  0.10232872983553108  1.0000
  H   H15       1.0  0.9530144042317733  0.27777899569844544  0.6023287298875758  1.0000
  H   H16       1.0  0.046985595826055764  0.7777789956160507  0.8976712697881233  1.0000
  H   H17       1.0  0.2138619096842873  0.546882742945281  0.4047685754429527  1.0000
  H   H18       1.0  0.786138089866882  0.046882743027675824  0.09523142475125072  1.0000
  H   H19       1.0  0.7861380901195393  0.4531172568899294  0.5952314248032955  1.0000
  H   H20       1.0  0.21386190993694473  0.9531172568075346  0.9047685754949975  1.0000
  H   H21       1.0  0.5586105634067144  0.21309699214466596  0.6164812267367481  1.0000
  H   H22       1.0  0.44138943664976965  0.7130969920622712  0.8835187735615447  1.0000
  H   H23       1.0  0.44138943718923945  0.7869030076905444  0.3835187735552673  1.0000
  H   H24       1.0  0.5586105631540571  0.28690300777293926  0.11648122668470345  1.0000
  H   H25       1.0  0.7109377969882529  0.04211529196575061  0.6745943103773041  1.0000
  H   H26       1.0  0.2890622030682312  0.5421152918833558  0.8254056899209886  1.0000
  H   H27       1.0  0.2890622028155739  0.9578847078694598  0.32540568986894397  1.0000
  H   H28       1.0  0.7109377967355957  0.4578847079518546  0.1745943103252595  1.0000
  H   H29       1.0  0.8192150274269129  0.03263443386351583  0.6091208042893662  1.0000
  H   H30       1.0  0.180784971838789  0.532634433781121  0.8908791953405656  1.0000
  H   H31       1.0  0.18078497237825886  0.9673655659716947  0.3908791953342882  1.0000
  H   H32       1.0  0.8192150279663828  0.46736556605408935  0.10912080428308878  1.0000
  H   H33       1.0  0.7320216097206202  0.8521508978891666  0.6117450987057196  1.0000
  H   H34       1.0  0.26797839033586407  0.3521508979715615  0.8882549015925734  1.0000
  H   H35       1.0  0.2679783900832067  0.1478491019460437  0.3882549015405286  1.0000
  H   H36       1.0  0.7320216094679628  0.6478491018636489  0.11174509865367487  1.0000
  H   H37       1.0  0.5393563567514256  0.4008467434211755  0.28170382895901286  1.0000
  H   H38       1.0  0.460643643591871  0.9008467433387807  0.21829617128095796  1.0000
  H   H39       1.0  0.46064364305240113  0.5991532564140349  0.7182961712872353  1.0000
  H   H40       1.0  0.5393563562119558  0.09915325649642968  0.7817038289652902  1.0000
  H   H41       1.0  0.4434316630204179  0.3046298096613831  0.34200543157483915  1.0000
  H   H42       1.0  0.5565683373228787  0.8046298095789882  0.15799456866513162  1.0000
  H   H43       1.0  0.556568337575536  0.6953701901738273  0.6579945687171763  1.0000
  H   H44       1.0  0.4434316624809481  0.1953701902562221  0.8420054315811165  1.0000
  H   H45       1.0  0.46777530736659056  0.21324606087156203  0.2425375681188276  1.0000
  H   H46       1.0  0.532224692976706  0.7132460607891672  0.25746243212114317  1.0000
  H   H47       1.0  0.5322246924372362  0.7867539389636484  0.7574624321274205  1.0000
  H   H48       1.0  0.46777530682712065  0.2867539390460431  0.742537568125105  1.0000
  H   H49       1.0  0.7583521114826307  0.8275504168654074  0.22763907457446633  1.0000
  H   H50       1.0  0.241647888860666  0.32755041694780224  0.2723609256655044  1.0000
  H   H51       1.0  0.24164788832254105  0.17244958296980298  0.7723609250491881  1.0000
  H   H52       1.0  0.7583521117352879  0.6724495828874082  0.727639074626511  1.0000
  H   H53       1.0  0.8547346787512154  0.8045043616268237  0.3146148382377279  1.0000
  H   H54       1.0  0.145265320799954  0.3045043617092186  0.18538516195647556  1.0000
  H   H55       1.0  0.14526532105261136  0.1954956382083866  0.6853851620085203  1.0000
  H   H56       1.0  0.8547346790038728  0.6954956381259918  0.8146148382897727  1.0000
  H   H57       1.0  0.8579872183380826  0.9880116585022147  0.24670617381343177  1.0000
  H   H58       1.0  0.14201278121308694  0.48801165858460954  0.2532938263807717  1.0000
  H   H59       1.0  0.14201278146574428  0.011988342628704619  0.7532938264328163  1.0000
  H   H60       1.0  0.8579872185907398  0.5119883425463098  0.7467061738654764  1.0000
  C   C1        1.0  0.22443052055799553  0.5285258131606948  0.5390416917410892  1.0000
  C   C2        1.0  0.7755694787063614  0.028525813243089664  0.9609583085114364  1.0000
  C   C3        1.0  0.7755694792458313  0.4714741866745155  0.46095830850515895  1.0000
  C   C4        1.0  0.2244305210974654  0.9714741865921207  0.0390416917348118  1.0000
  C   C5        1.0  0.1797239412543125  0.5759572967162622  0.6125805105282535  1.0000
  C   C6        1.0  0.8202760588021716  0.07595729679865693  0.8874194897700395  1.0000
  C   C7        1.0  0.8202760585495144  0.42404270441465725  0.3874194897179948  1.0000
  C   C8        1.0  0.17972394100165515  0.9240427043322624  0.1125805104762087  1.0000
  C   C9        1.0  0.0880947476636106  0.6761189115176047  0.6072147119783379  1.0000
  C   C10       1.0  0.9119052523942185  0.1761189115999995  0.8927852876973613  1.0000
  C   C11       1.0  0.9119052529336883  0.3238810883176057  0.3927852876910839  1.0000
  C   C12       1.0  0.08809474741095322  0.8238810882352109  0.10721471192629307  1.0000
  C   C13       1.0  0.03872615208051818  0.7294907607763612  0.5310499421234399  1.0000
  C   C14       1.0  0.9612738479773109  0.229490760858756  0.9689500575522592  1.0000
  C   C15       1.0  0.9612738477246536  0.2705092390588492  0.46895005750021446  1.0000
  C   C16       1.0  0.03872615182786083  0.7705092389764544  0.031049942071395265  1.0000
  C   C17       1.0  0.08387133419095259  0.6807982206803589  0.4578718468723881  1.0000
  C   C18       1.0  0.9161286661523441  0.18079822076275365  0.042128153367582695  1.0000
  C   C19       1.0  0.9161286656128742  0.31920177915485154  0.54212815337386  1.0000
  C   C20       1.0  0.08387133444360993  0.8192017790724567  0.9578718469244328  1.0000
  C   C21       1.0  0.17653264245197328  0.5815591869536492  0.4615223486056277  1.0000
  C   C22       1.0  0.8234673578913234  0.08155918703604398  0.03847765163434309  1.0000
  C   C23       1.0  0.8234673581439808  0.4184408128815612  0.5384776516863877  1.0000
  C   C24       1.0  0.17653264191250345  0.9184408127991663  0.961522348611905  1.0000
  C   C25       1.0  0.3245199882929305  0.42516791364264284  0.5459081554662284  1.0000
  C   C26       1.0  0.6754800117635537  0.925167913560248  0.9540918448320644  1.0000
  C   C27       1.0  0.6754800123030236  0.5748320861925675  0.45409184482578707  1.0000
  C   C28       1.0  0.3245199880402732  0.07483208627496236  0.045908155414183666  1.0000
  C   C29       1.0  0.5834425182906717  0.17032839982334907  0.5565969788258279  1.0000
  C   C30       1.0  0.4165574817671573  0.6703283997409544  0.9434030208498712  1.0000
  C   C31       1.0  0.4165574815144999  0.8296716000118612  0.4434030207978264  1.0000
  C   C32       1.0  0.5834425180380144  0.3296716000942561  0.05659697877378329  1.0000
  C   C33       1.0  0.5970340272264099  0.14666885618336273  0.42432192600153007  1.0000
  C   C34       1.0  0.40296597232475967  0.6466688561009679  0.07567807419267338  1.0000
  C   C35       1.0  0.40296597257741695  0.8533311436518477  0.575678074244718  1.0000
  C   C36       1.0  0.5970340274790672  0.3533311437342425  0.9243219260535748  1.0000
  C   C37       1.0  0.6590664251765401  0.09070442411936266  0.2904482302662064  1.0000
  C   C38       1.0  0.34093357516810135  0.5907044240369679  0.2095517693511706  1.0000
  C   C39       1.0  0.3409335754207587  0.9092955770115567  0.7095517694032153  1.0000
  C   C40       1.0  0.6590664246370703  0.4092955757982425  0.7904482302724838  1.0000
  C   C41       1.0  0.7560373058495248  0.9626415626233349  0.4182052871062367  1.0000
  C   C42       1.0  0.24396269370164458  0.46264156270572965  0.08179471308796671  1.0000
  C   C43       1.0  0.24396269395430192  0.037358437211875574  0.5817947131400113  1.0000
  C   C44       1.0  0.7560373061021822  0.5373584371294807  0.9182052871582814  1.0000
  C   C45       1.0  0.6793180837615702  0.05103016235784208  0.46314948437541487  1.0000
  C   C46       1.0  0.32068191658172646  0.5510301622754473  0.03685051586455591  1.0000
  C   C47       1.0  0.3206819160422567  0.9489698374773683  0.5368505158708333  1.0000
  C   C48       1.0  0.6793180840142276  0.4489698375597631  0.9631494844274595  1.0000
  C   C49       1.0  0.7370629015539513  0.9937806731711541  0.6153647501070657  1.0000
  C   C50       1.0  0.26293709850253283  0.49378067325354896  0.8846352501912272  1.0000
  C   C51       1.0  0.2629370982498755  0.006219326664056201  0.38463525013918254  1.0000
  C   C52       1.0  0.7370629013012938  0.5062193278773703  0.11536475005502095  1.0000
  C   C53       1.0  0.5037162001634543  0.2772505006233889  0.29849051683826067  1.0000
  C   C54       1.0  0.49628380017984247  0.7772505018367031  0.20150948340171007  1.0000
  C   C55       1.0  0.4962837996417175  0.7227494992118215  0.7015094827853936  1.0000
  C   C56       1.0  0.5037161996239844  0.22274949929421628  0.7984905168445381  1.0000
  C   C57       1.0  0.806596803054565  0.8958759929462505  0.27646550833676936  1.0000
  C   C58       1.0  0.19340319649660445  0.39587599302864523  0.22353449185743413  1.0000
  C   C59       1.0  0.1934031967492618  0.10412400688895995  0.7235344919094788  1.0000
  C   C60       1.0  0.8065968033072224  0.6041240081022741  0.7764655083888139  1.0000
  N   N1        1.0  0.043176560128295786  0.7305656446675078  0.68472632106749  1.0000
  N   N2        1.0  0.9568234399281885  0.2305656434541937  0.815273679230803  1.0000
  N   N3        1.0  0.9568234404676582  0.2694343564634115  0.31527367922452554  1.0000
  N   N4        1.0  0.04317655987563843  0.7694343563810168  0.18472632101544526  1.0000
  N   N5        1.0  0.6688276549071706  0.06912263664360845  0.5481359739625743  1.0000
  N   N6        1.0  0.3311723451506585  0.5691226365612136  0.9518640257131249  1.0000
  N   N7        1.0  0.3311723448980012  0.930877363191602  0.45186402566108014  1.0000
  N   N8        1.0  0.6688276546531682  0.4308773632739967  0.048135974533123335  1.0000
  N   N9        1.0  0.5372698901174628  0.21930879721808494  0.4823466161520107  1.0000
  N   N10       1.0  0.46273011022583377  0.7193087971356902  0.017653384087960154  1.0000
  N   N11       1.0  0.46273011047849105  0.7806912026171254  0.5176533841400048  1.0000
  N   N12       1.0  0.537269889577993  0.28069120269952025  0.9823466161582881  1.0000
  N   N13       1.0  0.5846313449638695  0.1647929937095084  0.3393467355532753  1.0000
  N   N14       1.0  0.4153686545886449  0.6647929936271135  0.1606532640183344  1.0000
  N   N15       1.0  0.4153686548413022  0.835207007421411  0.660653264070379  1.0000
  N   N16       1.0  0.5846313452165268  0.3352070062080968  0.83934673560532  1.0000
  N   N17       1.0  0.7371270627064991  0.9863244691919654  0.3308835661146674  1.0000
  N   N18       1.0  0.2628729376381425  0.48632446927436024  0.16911643350270952  1.0000
  N   N19       1.0  0.26287293789079985  0.01367553064324497  0.6691164335547541  1.0000
  N   N20       1.0  0.7371270621670293  0.5136755305608501  0.8308835661209448  1.0000
  O   O1        1.0  0.3585493012484728  0.3838956267844303  0.47229885898045454  1.0000
  O   O2        1.0  0.6414506990948238  0.8838956267020356  0.027701141259516244  1.0000
  O   O3        1.0  0.641450698555354  0.616104374346489  0.5277011412657936  1.0000
  O   O4        1.0  0.35854930150113024  0.11610437313317486  0.9722988590324992  1.0000
  O   O5        1.0  0.3703013920125131  0.3850625124918038  0.6138386891853929  1.0000
  O   O6        1.0  0.629698608045316  0.8850625124094089  0.8861613104903062  1.0000
  O   O7        1.0  0.6296986077926585  0.6149374873434066  0.38616131043826146  1.0000
  O   O8        1.0  0.37030139255198297  0.11493748742580143  0.11383868917911552  1.0000
  O   O9        1.0  0.09261151793387506  0.6928217936362686  0.7520594640412793  1.0000
  O   O10       1.0  0.907388482122609  0.19282179371866345  0.7479405362570135  1.0000
  O   O11       1.0  0.9073884818699518  0.3071782061989417  0.24794053620496884  1.0000
  O   O12       1.0  0.09261151768121771  0.807178206116547  0.2520594639892346  1.0000
  O   O13       1.0  0.9589527378840987  0.8138369996915453  0.6794100193096303  1.0000
  O   O14       1.0  0.04104726217373042  0.31383699977394014  0.8205899803660687  1.0000
  O   O15       1.0  0.041047262713200264  0.18616300143937406  0.32058998035979136  1.0000
  O   O16       1.0  0.9589527376300965  0.6861630013569793  0.1794100198801794  1.0000
  O   O17       1.0  0.6552020378944869  0.1146551187503133  0.21413455379295934  1.0000
  O   O18       1.0  0.3447979616580274  0.6146551186679184  0.28586544577865036  1.0000
  O   O19       1.0  0.3447979619106848  0.8853448810848971  0.7858654458306951  1.0000
  O   O20       1.0  0.6552020381471443  0.3853448811672919  0.714134553845004  1.0000
  O   O21       1.0  0.8313250872327129  0.8749139093878828  0.448172145178473  1.0000
  O   O22       1.0  0.16867491231845647  0.3749139094702777  0.05182785501573052  1.0000
  O   O23       1.0  0.16867491257111383  0.12508609044732752  0.5518278550677752  1.0000
  O   O24       1.0  0.8313250874853704  0.6250860916606418  0.9481721452305176  1.0000
