data_image0
_chemical_formula_structural       H24C26N4O10
_chemical_formula_sum              "H24 C26 N4 O10"
_cell_length_a       5.736261371385637
_cell_length_b       7.940436751065787
_cell_length_c       13.172314990256314
_cell_angle_alpha    95.02712873696484
_cell_angle_beta     91.72192147285304
_cell_angle_gamma    93.55813704765607

_space_group_name_H-M_alt    "P 1"
_space_group_IT_number       1

loop_
  _space_group_symop_operation_xyz
  'x, y, z'

loop_
  _atom_site_type_symbol
  _atom_site_label
  _atom_site_symmetry_multiplicity
  _atom_site_fract_x
  _atom_site_fract_y
  _atom_site_fract_z
  _atom_site_occupancy
  H   H1        1.0  0.9561772563134362  0.14809744008734047  0.10821129319615631  1.0000
  H   H2        1.0  0.04382274369669386  0.8519025593105869  0.8917887065281545  1.0000
  H   H3        1.0  0.6365755851245343  0.319580944194425  0.012310455685996587  1.0000
  H   H4        1.0  0.363424414889508  0.6804190551856222  0.9876895447965095  1.0000
  H   H5        1.0  0.7029268870103231  0.5000580012308173  0.17452573770807944  1.0000
  H   H6        1.0  0.29707311313247037  0.49994199943382517  0.8254742620955665  1.0000
  H   H7        1.0  0.6248821406595136  0.7055542293079881  0.4110640367981467  1.0000
  H   H8        1.0  0.3751178593506164  0.2944457700899393  0.5889359629261641  1.0000
  H   H9        1.0  0.3893758980905598  0.12633183082600183  0.9162249178853014  1.0000
  H   H10       1.0  0.6106241019195703  0.8736681685719258  0.08377508183900954  1.0000
  H   H11       1.0  0.059007634819461224  0.4132999730627764  0.3437672723417844  1.0000
  H   H12       1.0  0.9409923651906689  0.586700026335151  0.6562327273825264  1.0000
  H   H13       1.0  0.33048048547311504  0.9381498996043143  0.7536617545865324  1.0000
  H   H14       1.0  0.669519514537015  0.061850099793613146  0.24633824513777844  1.0000
  H   H15       1.0  0.8452296143861886  0.2735721827536476  0.892881260472139  1.0000
  H   H16       1.0  0.15477038562394138  0.7264278166442797  0.10711873925217186  1.0000
  H   H17       1.0  0.10336795613552593  0.2378648973703273  0.7440159108249651  1.0000
  H   H18       1.0  0.896632043874604  0.7621351020276002  0.2559840888993457  1.0000
  H   H19       1.0  0.9628844333715155  0.03846796657667762  0.5927806360666658  1.0000
  H   H20       1.0  0.037115566771277926  0.9615320340879648  0.40721936373698003  1.0000
  H   H21       1.0  0.29790446201950244  0.681109943432266  0.5114932841198718  1.0000
  H   H22       1.0  0.7020955381272033  0.3188900572144961  0.48850671644196936  1.0000
  H   H23       1.0  0.24689956162460958  0.7714552902990272  0.6353594207061845  1.0000
  H   H24       1.0  0.7531004383894329  0.22854470908101998  0.36464057977632164  1.0000
  C   C1        1.0  0.3694778064460504  0.43038012432994444  0.23419091955463564  1.0000
  C   C2        1.0  0.6305221935640796  0.5696198750679832  0.7658090801696751  1.0000
  C   C3        1.0  0.15657240592467553  0.3289429604968528  0.2143442289306293  1.0000
  C   C4        1.0  0.843427594218118  0.6710570401677897  0.7856557708730165  1.0000
  C   C5        1.0  0.11687996852342003  0.22806816951879524  0.12280100060941858  1.0000
  C   C6        1.0  0.8831200316193734  0.7719318311458473  0.8771989991942273  1.0000
  C   C7        1.0  0.29018999026478387  0.22332907400847138  0.04982320488115686  1.0000
  C   C8        1.0  0.7098100098819218  0.7766709266382908  0.9501767956806842  1.0000
  C   C9        1.0  0.5028366046178706  0.32289598357206434  0.0689786281136552  1.0000
  C   C10       1.0  0.49716339539225946  0.6771040158258632  0.9310213716106556  1.0000
  C   C11       1.0  0.5393112110115683  0.4242010143381378  0.1592269097161364  1.0000
  C   C12       1.0  0.4606887889985617  0.5757989850597897  0.8407730900081745  1.0000
  C   C13       1.0  0.40808811257958466  0.5348459392614007  0.33018017463885796  1.0000
  C   C14       1.0  0.5919118875632088  0.4651540614032417  0.669819825164788  1.0000
  C   C15       1.0  0.63664861524865  0.9708543818667825  0.6611932016660756  1.0000
  C   C16       1.0  0.36335138476148005  0.02914561753114494  0.33880679805823516  1.0000
  C   C17       1.0  0.5030844433356964  0.0013369411308357868  0.7471523989188945  1.0000
  C   C18       1.0  0.49691555681100946  0.9986630595159264  0.2528476016429466  1.0000
  C   C19       1.0  0.789069736898715  0.18935131782338224  0.825655761447615  1.0000
  C   C20       1.0  0.21093026324407835  0.8106486828412602  0.1743442383560308  1.0000
  C   C21       1.0  0.9341061863454365  0.16777951214536413  0.7432704108572158  1.0000
  C   C22       1.0  0.06589381380126923  0.8322204885013981  0.25672958970462534  1.0000
  C   C23       1.0  0.8563842813317806  0.05774001750059545  0.6594653588517458  1.0000
  C   C24       1.0  0.1436157186783495  0.942259981897332  0.3405346408725651  1.0000
  C   C25       1.0  0.5559439301742247  0.8508927267256327  0.571959742050507  1.0000
  C   C26       1.0  0.4440560699685686  0.14910727393900977  0.4280402577531387  1.0000
  N   N1        1.0  0.34859044379797366  0.7662959410250568  0.5732093837463749  1.0000
  N   N2        1.0  0.6514095563448198  0.23370405963958557  0.4267906160572709  1.0000
  N   N3        1.0  0.5765475784697486  0.1090156165921928  0.8272729420293791  1.0000
  N   N4        1.0  0.42345242154429386  0.8909843827878543  0.17272705845312716  1.0000
  O   O1        1.0  0.608761498769716  0.6257089841328753  0.34257054243092144  1.0000
  O   O2        1.0  0.39123850137307736  0.374291016531767  0.6574294573727244  1.0000
  O   O3        1.0  0.255479931438573  0.5382211356547075  0.39801935805696875  1.0000
  O   O4        1.0  0.7445200685715571  0.46177886374322  0.6019806416673421  1.0000
  O   O5        1.0  0.24833072607792211  0.1225307180200667  0.9632978654912578  1.0000
  O   O6        1.0  0.7516692739361203  0.8774692813599805  0.03670213499124817  1.0000
  O   O7        1.0  0.990829793136487  0.32933876621624764  0.28571264542063796  1.0000
  O   O8        1.0  0.009170207006306458  0.6706612344483949  0.7142873543830078  1.0000
  O   O9        1.0  0.6877445379120345  0.8335449208176321  0.49690372663789734  1.0000
  O   O10       1.0  0.3122554622346712  0.16645507982912988  0.5030962739239437  1.0000
