data_image0
_chemical_formula_structural       H60C80N4O12
_chemical_formula_sum              "H60 C80 N4 O12"
_cell_length_a       6.578126368955311
_cell_length_b       9.393056593559022
_cell_length_c       24.03875915830334
_cell_angle_alpha    90.0
_cell_angle_beta     92.47429040196268
_cell_angle_gamma    90.0

_space_group_name_H-M_alt    "P 1"
_space_group_IT_number       1

loop_
  _space_group_symop_operation_xyz
  'x, y, z'

loop_
  _atom_site_type_symbol
  _atom_site_label
  _atom_site_symmetry_multiplicity
  _atom_site_fract_x
  _atom_site_fract_y
  _atom_site_fract_z
  _atom_site_occupancy
  H   H1        1.0  0.2273067867403876  0.4051041215496633  0.2865897294082597  1.0000
  H   H2        1.0  0.2726932126383048  0.9051041218925219  0.21341027080904112  1.0000
  H   H3        1.0  0.7726932135665041  0.5948958780714375  0.713410270636422  1.0000
  H   H4        1.0  0.7273067876685869  0.0948958787931952  0.7865897292356407  1.0000
  H   H5        1.0  0.49437312246484816  0.7278774573431446  0.1854429204671622  1.0000
  H   H6        1.0  0.005626876913844251  0.2278774570002861  0.31455707975013864  1.0000
  H   H7        1.0  0.5056268778420434  0.2721225422779562  0.8145570795775195  1.0000
  H   H8        1.0  0.9943731218716997  0.7721225426208146  0.6854429202688721  1.0000
  H   H9        1.0  0.8239688027611337  0.6969487189600275  0.2384083165960607  1.0000
  H   H10       1.0  0.6760311981409866  0.19694871861716903  0.26159168340042827  1.0000
  H   H11       1.0  0.17603119754575794  0.3030512806610733  0.7615916834486213  1.0000
  H   H12       1.0  0.323968802165905  0.8030512810039317  0.7384083166442537  1.0000
  H   H13       1.0  0.855583658999794  0.5225958463154612  0.3163807289952582  1.0000
  H   H14       1.0  0.6444163403809785  0.022595845972602717  0.18361927097555958  1.0000
  H   H15       1.0  0.14441633978574983  0.47740415437025574  0.6836192710237525  1.0000
  H   H16       1.0  0.3555836599259132  0.9774041536484981  0.8163807290691223  1.0000
  H   H17       1.0  0.7418640292047651  0.2532756601968461  0.42797443280942565  1.0000
  H   H18       1.0  0.7581359701760074  0.7532756605397046  0.07202556716139215  1.0000
  H   H19       1.0  0.2581359695807788  0.7467243394242546  0.5720255672095851  1.0000
  H   H20       1.0  0.24186403013088423  0.24672433908139615  0.9279744328832896  1.0000
  H   H21       1.0  0.1498628873540135  0.6608357405465255  0.17830499490595947  1.0000
  H   H22       1.0  0.350137112052838  0.160835740203667  0.3216950048957505  1.0000
  H   H23       1.0  0.8501371129528781  0.3391642601391915  0.8216950051387224  1.0000
  H   H24       1.0  0.6498628882540536  0.8391642594174338  0.6783049951489314  1.0000
  H   H25       1.0  0.7887158619846559  0.4435258436382402  0.4887793425114719  1.0000
  H   H26       1.0  0.7112841373961166  0.9435258429164824  0.011220657459345874  1.0000
  H   H27       1.0  0.21128413832223578  0.5564741570474767  0.5112206575332099  1.0000
  H   H28       1.0  0.288715862910775  0.056474156704618264  0.988779342585336  1.0000
  H   H29       1.0  0.8291609841315231  0.5351696053281544  0.5865529176458794  1.0000
  H   H30       1.0  0.67083901558222  0.03516960498529591  0.9134470822005123  1.0000
  H   H31       1.0  0.1708390146821799  0.4648303953575626  0.4134470819575404  1.0000
  H   H32       1.0  0.3291609847246716  0.9648303957004211  0.08655291784416948  1.0000
  H   H33       1.0  0.8419630702728599  0.36709579843950435  0.6661590014006638  1.0000
  H   H34       1.0  0.6580369294408832  0.8670957987823629  0.8338409984457278  1.0000
  H   H35       1.0  0.15803693003403171  0.6329042011815964  0.333840998644018  1.0000
  H   H36       1.0  0.3419630693446607  0.13290420083873794  0.16615900157328284  1.0000
  H   H37       1.0  0.8123820977831472  0.1077149477299849  0.6508451723579977  1.0000
  H   H38       1.0  0.6876179034519437  0.6077149480728434  0.8491548275140651  1.0000
  H   H39       1.0  0.18761790252374444  0.8922850518911158  0.3491548276866842  1.0000
  H   H40       1.0  0.31238209685494794  0.3922850526128736  0.15084517253061666  1.0000
  H   H41       1.0  0.7635053817878134  0.9031802859377388  0.5836994161792924  1.0000
  H   H42       1.0  0.7364946178977707  0.4031802866594965  0.9163005840826904  1.0000
  H   H43       1.0  0.23649461851907824  0.09681971368336198  0.41630058386538943  1.0000
  H   H44       1.0  0.2635053824091209  0.5968197140262205  0.08369941596199153  1.0000
  H   H45       1.0  0.7202693722549106  0.7069125267011814  0.5148393284752897  1.0000
  H   H46       1.0  0.7797306274588324  0.2069125263583229  0.9851606713711021  1.0000
  H   H47       1.0  0.279730628051981  0.29308747398453555  0.4851606715693922  1.0000
  H   H48       1.0  0.22026937284805917  0.7930874732627778  0.014839328673579769  1.0000
  H   H49       1.0  0.6823259716021857  0.6296406139036255  0.41531109331573485  1.0000
  H   H50       1.0  0.8176740292999346  0.1296406146253832  0.08468890668075404  1.0000
  H   H51       1.0  0.31767402870470607  0.37035938571747523  0.5846889067289469  1.0000
  H   H52       1.0  0.182325971006957  0.8703593860603337  0.9153110933639277  1.0000
  H   H53       1.0  0.669682696595102  0.8101130238284651  0.3397802541711866  1.0000
  H   H54       1.0  0.8303173027856705  0.31011302348560654  0.16021974579963125  1.0000
  H   H55       1.0  0.33031730371178963  0.1898869757926358  0.6602197458734952  1.0000
  H   H56       1.0  0.1696826959998734  0.6898869761354942  0.8397802542193795  1.0000
  H   H57       1.0  0.7049247990009951  0.06647808024793375  0.36105200947986343  1.0000
  H   H58       1.0  0.7950752003797775  0.5664780805907922  0.1389479904909544  1.0000
  H   H59       1.0  0.29507520130589654  0.933521919373167  0.6389479905648184  1.0000
  H   H60       1.0  0.20492479840576647  0.4335219190303085  0.8610520095280565  1.0000
  C   C1        1.0  0.5436133758787653  0.454592496858586  0.3069131687859999  1.0000
  C   C2        1.0  0.9563866235020071  0.9545924961368282  0.19308683118481795  1.0000
  C   C3        1.0  0.4563866244281263  0.545407503827131  0.693086831258682  1.0000
  C   C4        1.0  0.043613375283536746  0.04540750348427249  0.8069131688341928  1.0000
  C   C5        1.0  0.3592535703043142  0.4681930920139054  0.27621983557163665  1.0000
  C   C6        1.0  0.14074643059572595  0.9681930912921477  0.22378016467133527  1.0000
  C   C7        1.0  0.6407464300025774  0.5318069086718116  0.7237801644730452  1.0000
  C   C8        1.0  0.8592535697111657  0.03180690832895307  0.7762198353733466  1.0000
  C   C9        1.0  0.33950292801326915  0.5674481950481296  0.2327508987475391  1.0000
  C   C10       1.0  0.16049707139358238  0.06744819470527116  0.2672491010541708  1.0000
  C   C11       1.0  0.6604970707722749  0.43255180457297115  0.7672491012714716  1.0000
  C   C12       1.0  0.8395029289414684  0.9325518049158296  0.7327508985749199  1.0000
  C   C13       1.0  0.5079956009526769  0.6506972186445812  0.21930765213617257  1.0000
  C   C14       1.0  0.9920043999494432  0.15069721830172272  0.2806923478603164  1.0000
  C   C15       1.0  0.49200439935421464  0.34930278204113574  0.7806923479085094  1.0000
  C   C16       1.0  0.007995600357448363  0.8493027813193781  0.7193076521843655  1.0000
  C   C17       1.0  0.6929509073815191  0.6334633450500152  0.24915841697116453  1.0000
  C   C18       1.0  0.8070490935206013  0.133463345771773  0.2508415830253244  1.0000
  C   C19       1.0  0.30704909292537264  0.3665366545710855  0.7508415830735172  1.0000
  C   C20       1.0  0.19295090681444943  0.8665366549139439  0.7491584166037665  1.0000
  C   C21       1.0  0.7122438779324728  0.5361027520533652  0.2927146285478958  1.0000
  C   C22       1.0  0.7877561229696475  0.03610275277512296  0.20728537144859313  1.0000
  C   C23       1.0  0.28775612237441883  0.4638972475677355  0.707285371496786  1.0000
  C   C24       1.0  0.21224387733724415  0.963897247910594  0.7927146285960888  1.0000
  C   C25       1.0  0.561026224995138  0.35761252437288354  0.35644575057779565  1.0000
  C   C26       1.0  0.9389737743856346  0.8576125236511258  0.1435542493930221  1.0000
  C   C27       1.0  0.43897377531175363  0.6423874763128334  0.6435542494668861  1.0000
  C   C28       1.0  0.06102622592125715  0.14238747596997495  0.8564457506516596  1.0000
  C   C29       1.0  0.7788738839179061  0.22341926710406904  0.5149869886670374  1.0000
  C   C30       1.0  0.721126115795837  0.7234192674469275  0.9850130111793544  1.0000
  C   C31       1.0  0.22112611638898544  0.7765807325170316  0.4850130113776444  1.0000
  C   C32       1.0  0.27887388451105477  0.2765807321741732  0.014986988865327499  1.0000
  C   C33       1.0  0.7944348034907952  0.37203127173706646  0.5245161813226598  1.0000
  C   C34       1.0  0.705565196222948  0.8720312720799249  0.975483818523732  1.0000
  C   C35       1.0  0.20556519681609647  0.6279687278840344  0.475483818722022  1.0000
  C   C36       1.0  0.2944348040839437  0.12796872754117586  0.02451618152094994  1.0000
  C   C37       1.0  0.8173114106981585  0.4212404525182144  0.5783242788423015  1.0000
  C   C38       1.0  0.6826885890155846  0.9212404517964567  0.9216757210040902  1.0000
  C   C39       1.0  0.18268858960873305  0.5787595481675025  0.4216757212023803  1.0000
  C   C40       1.0  0.3173114097699594  0.07875954782464406  0.07832427901492056  1.0000
  C   C41       1.0  0.8253319917641323  0.32527771014337403  0.6240503304804181  1.0000
  C   C42       1.0  0.6746680079214519  0.8252777104862326  0.8759496697815647  1.0000
  C   C43       1.0  0.1746680070214117  0.6747222894777267  0.3759496695385927  1.0000
  C   C44       1.0  0.32533199238543975  0.17472229019948443  0.12405033026311722  1.0000
  C   C45       1.0  0.8093207965940135  0.18111667943814674  0.6158113428731764  1.0000
  C   C46       1.0  0.6906792046129184  0.6811166797810052  0.8841886574144774  1.0000
  C   C47       1.0  0.19067920371287816  0.818883320182954  0.38418865717150547  1.0000
  C   C48       1.0  0.3093207956939733  0.31888331984009555  0.11581134263020447  1.0000
  C   C49       1.0  0.7853248120686641  0.1254913156605792  0.5609305519409687  1.0000
  C   C50       1.0  0.7146751876450791  0.6254913160034377  0.939069447905423  1.0000
  C   C51       1.0  0.21467518823822757  0.8745086839605216  0.439069448103713  1.0000
  C   C52       1.0  0.2853248126618126  0.3745086836176631  0.06093055213925893  1.0000
  C   C53       1.0  0.7650307292174036  0.9798168741271056  0.5495303057333565  1.0000
  C   C54       1.0  0.7349692704963394  0.4798168737842472  0.9504696941130353  1.0000
  C   C55       1.0  0.23496926956814027  0.020183126558611292  0.4504696942856543  1.0000
  C   C56       1.0  0.2650307298105522  0.5201831258368536  0.049530305931646576  1.0000
  C   C57       1.0  0.7411480124264599  0.9306061837202189  0.4946568607251869  1.0000
  C   C58       1.0  0.7588519884756602  0.4306061833773604  0.005343139271302067  1.0000
  C   C59       1.0  0.2588519878804316  0.06939381696549811  0.5053431393194949  1.0000
  C   C60       1.0  0.24114801183123138  0.5693938162437404  0.9946568607733797  1.0000
  C   C61       1.0  0.7195130544112699  0.7836814339059422  0.48083546042721337  1.0000
  C   C62       1.0  0.7804869449695025  0.28368143462769996  0.019164539543604458  1.0000
  C   C63       1.0  0.28048694437427396  0.21631856571515848  0.5191645395917974  1.0000
  C   C64       1.0  0.219513055337389  0.7163185660580169  0.9808354605010774  1.0000
  C   C65       1.0  0.696637325077414  0.7419559022756151  0.42615081589824844  1.0000
  C   C66       1.0  0.8033626758247062  0.24195590193275665  0.07384918409824044  1.0000
  C   C67       1.0  0.3033626752294777  0.2580440973454856  0.5738491841464334  1.0000
  C   C68       1.0  0.19663732448218535  0.758044097688344  0.9261508159464414  1.0000
  C   C69       1.0  0.6910856759963804  0.8450771206300538  0.3828570810997436  1.0000
  C   C70       1.0  0.8089143249057398  0.3450771213518115  0.11714291889674529  1.0000
  C   C71       1.0  0.3089143243105112  0.15492287899104695  0.6171429189449382  1.0000
  C   C72       1.0  0.19108567540115176  0.6549228793339054  0.8828570811479365  1.0000
  C   C73       1.0  0.7105601344315328  0.987987547776898  0.3942929931011492  1.0000
  C   C74       1.0  0.7894398649492398  0.48798754743403944  0.10570700686966866  1.0000
  C   C75       1.0  0.28943986587535886  0.01201245184420287  0.6057070069435326  1.0000
  C   C76       1.0  0.21056013535765186  0.5120124521870613  0.8942929931750131  1.0000
  C   C77       1.0  0.7370269993601335  0.0331460709193952  0.45022996516162045  1.0000
  C   C78       1.0  0.7629730015419867  0.5331460712622537  0.04977003483486849  1.0000
  C   C79       1.0  0.2629730009749171  0.9668539287017055  0.5497700344674704  1.0000
  C   C80       1.0  0.23702699876490496  0.4668539294234633  0.9502299652098133  1.0000
  N   N1        1.0  0.7562338373353443  0.17349758662345272  0.462311158837316  1.0000
  N   N2        1.0  0.7437661635667759  0.673497585901695  0.03768884115917288  1.0000
  N   N3        1.0  0.24376616297154724  0.8265024140622642  0.5376888412073658  1.0000
  N   N4        1.0  0.2562338367401157  0.32650241371940575  0.9623111588855089  1.0000
  O   O1        1.0  0.729085946779847  0.3630722040297873  0.3855002122089652  1.0000
  O   O2        1.0  0.7709140541222732  0.8630722043726459  0.11449978778752373  1.0000
  O   O3        1.0  0.2709140535270446  0.6369277955913135  0.6144997878357167  1.0000
  O   O4        1.0  0.22908594618461842  0.1369277963130712  0.8855002122571581  1.0000
  O   O5        1.0  0.4125756279090605  0.27722107005993923  0.36793615965544746  1.0000
  O   O6        1.0  0.08742437301913868  0.7772210704027978  0.13206384017193354  1.0000
  O   O7        1.0  0.5874243723978312  0.7227789295611615  0.6320638403892344  1.0000
  O   O8        1.0  0.9125756272877529  0.2227789302829192  0.8679361598727483  1.0000
  O   O9        1.0  0.1554891791849131  0.578505727701688  0.2054639709446399  1.0000
  O   O10       1.0  0.34451082174328607  0.07850572842344564  0.2945360288827411  1.0000
  O   O11       1.0  0.8445108211501375  0.42149427191941286  0.794536028684451  1.0000
  O   O12       1.0  0.6554891785636056  0.9214942722622712  0.7054639711619407  1.0000
