data_image0
_chemical_formula_structural       H40C82S24
_chemical_formula_sum              "H40 C82 S24"
_cell_length_a       10.333763614965221
_cell_length_b       12.563827970338464
_cell_length_c       15.22670675352254
_cell_angle_alpha    74.55659712125198
_cell_angle_beta     82.20992415594253
_cell_angle_gamma    77.79213780350682

_space_group_name_H-M_alt    "P 1"
_space_group_IT_number       1

loop_
  _space_group_symop_operation_xyz
  'x, y, z'

loop_
  _atom_site_type_symbol
  _atom_site_label
  _atom_site_symmetry_multiplicity
  _atom_site_fract_x
  _atom_site_fract_y
  _atom_site_fract_z
  _atom_site_occupancy
  H   H1        1.0  0.3591312382856907  0.8975124379675766  0.9526022630554317  1.0000
  H   H2        1.0  0.6408687617009541  0.10248756253533133  0.04739773741713171  1.0000
  H   H3        1.0  0.5699041423708058  0.7613144057728106  0.9457829101631806  1.0000
  H   H4        1.0  0.43009585779493886  0.23868559389120791  0.05421708981959494  1.0000
  H   H5        1.0  0.6795819587171582  0.7320041350671341  0.7960632117854449  1.0000
  H   H6        1.0  0.3204180404714478  0.26799586459884683  0.20393678828734113  1.0000
  H   H7        1.0  0.5792084332383072  0.8381283636742701  0.6517390174328791  1.0000
  H   H8        1.0  0.42079156692743747  0.1618716359897485  0.3482609825498965  1.0000
  H   H9        1.0  0.00036189207575130865  0.03535818515867683  0.357650737929747  1.0000
  H   H10       1.0  0.9996381069326824  0.9646418153473357  0.6423492619759347  1.0000
  H   H11       1.0  0.9269876940576046  0.11902421154701483  0.20133032749464155  1.0000
  H   H12       1.0  0.07301230610814012  0.8809757881170036  0.798669672488134  1.0000
  H   H13       1.0  0.9680591131125027  0.3083083770984968  0.11552598420105745  1.0000
  H   H14       1.0  0.031940887053241954  0.6916916225655217  0.884474015781718  1.0000
  H   H15       1.0  0.08116169424556731  0.41744968771698443  0.18659654495145286  1.0000
  H   H16       1.0  0.9188383059212496  0.5825503119458921  0.8134034556882149  1.0000
  H   H17       1.0  0.5602793208436547  0.6285917246226005  0.3391831131483728  1.0000
  H   H18       1.0  0.4397206791419176  0.37140827588144965  0.6608168866672982  1.0000
  H   H19       1.0  0.5613551126060209  0.8259015088846238  0.3364636099458536  1.0000
  H   H20       1.0  0.43864488658258505  0.17409849078135722  0.6635363901269324  1.0000
  H   H21       1.0  0.37644278219141475  0.9351438854808503  0.4181451184849414  1.0000
  H   H22       1.0  0.6235572169971911  0.06485611418513074  0.5818548815878446  1.0000
  H   H23       1.0  0.1876878487577827  0.845609926416722  0.5019862539278372  1.0000
  H   H24       1.0  0.8123121512277897  0.15439007408732813  0.49801374588783387  1.0000
  H   H25       1.0  0.3920356844314194  0.6564598988580223  0.7958270745152842  1.0000
  H   H26       1.0  0.607964315554153  0.34354010164602783  0.20417292530038678  1.0000
  H   H27       1.0  0.3985750082911413  0.6403000048586793  0.9611358243539451  1.0000
  H   H28       1.0  0.6014249918746034  0.3596999948053392  0.03886417562883028  1.0000
  H   H29       1.0  0.27171188727387174  0.5122986829302331  0.0778949256921003  1.0000
  H   H30       1.0  0.7282881128918728  0.4877013167337856  0.9221050742906752  1.0000
  H   H31       1.0  0.13957793668620852  0.3966178537757072  0.029294448614485512  1.0000
  H   H32       1.0  0.8604220634795361  0.6033821458883114  0.97070555136829  1.0000
  H   H33       1.0  0.5530818642809056  0.41835380646237647  0.8520780802302766  1.0000
  H   H34       1.0  0.4469181349077004  0.5816461932036047  0.14792191984250955  1.0000
  H   H35       1.0  0.3830873226126543  0.29704621341264303  0.895983271562178  1.0000
  H   H36       1.0  0.6169126775530903  0.7029537862513756  0.10401672842059738  1.0000
  H   H37       1.0  0.4359154805996872  0.1012697400518577  0.8779594832120885  1.0000
  H   H38       1.0  0.5640845195660574  0.8987302596121608  0.122040516770687  1.0000
  H   H39       1.0  0.6597840448498862  0.025418359992989324  0.8137534951435761  1.0000
  H   H40       1.0  0.3402159551367586  0.9745816405099188  0.1862465053289873  1.0000
  C   C1        1.0  0.15857621109433195  0.20297294840842037  0.6436718730396165  1.0000
  C   C2        1.0  0.8414237890714127  0.7970270512555984  0.3563281269431591  1.0000
  C   C3        1.0  0.19135650759506584  0.2782733538979927  0.5541885579654968  1.0000
  C   C4        1.0  0.8086434925717512  0.7217266457648839  0.445811442674171  1.0000
  C   C5        1.0  0.1853058603266769  0.38896098493913306  0.5711613707590568  1.0000
  C   C6        1.0  0.8146941398390678  0.6110390147248855  0.4288386292237187  1.0000
  C   C7        1.0  0.12352911144739674  0.3838033130492744  0.6651697072469227  1.0000
  C   C8        1.0  0.8764708887183479  0.6161966866147442  0.33483029273585285  1.0000
  C   C9        1.0  0.07023679635652835  0.27838426158307206  0.6948079936978877  1.0000
  C   C10       1.0  0.9297632036301163  0.7216157389198361  0.30519200677467556  1.0000
  C   C11       1.0  0.2176061956597634  0.09585433018425732  0.6824809821545644  1.0000
  C   C12       1.0  0.7823938045059813  0.9041456694797613  0.31751901782821096  1.0000
  C   C13       1.0  0.1843564047460263  0.2553593590717821  0.4719487579355168  1.0000
  C   C14       1.0  0.8156435952395459  0.7446406414322679  0.5280512418801542  1.0000
  C   C15       1.0  0.2260075216789913  0.4829498635423742  0.5124691808058216  1.0000
  C   C16       1.0  0.773992478306581  0.517050136961676  0.48753081900984946  1.0000
  C   C17       1.0  0.15092981916961357  0.4354402780619935  0.7279352074480664  1.0000
  C   C18       1.0  0.8490701808159588  0.5645597224420567  0.27206479236760467  1.0000
  C   C19       1.0  0.9505096709481935  0.26019528860079644  0.7404061680053162  1.0000
  C   C20       1.0  0.049490329218623584  0.73980471106208  0.25959383263435165  1.0000
  C   C21       1.0  0.3478909643631152  0.9429035040411013  0.8059712929531343  1.0000
  C   C22       1.0  0.6521090358026295  0.05709649562291717  0.19402870702964123  1.0000
  C   C23       1.0  0.4054426274693669  0.8833484597728016  0.8870193524140907  1.0000
  C   C24       1.0  0.5945573726963779  0.1166515398912169  0.11298064756868466  1.0000
  C   C25       1.0  0.5247110858543474  0.8073685528520408  0.8827205291328079  1.0000
  C   C26       1.0  0.4752889141322972  0.1926314476508673  0.11727947133975539  1.0000
  C   C27       1.0  0.5860429436423276  0.7904795320001383  0.7987392601178638  1.0000
  C   C28       1.0  0.41395705652341697  0.2095204676638803  0.20126073986491175  1.0000
  C   C29       1.0  0.5298764891139707  0.8501677470922796  0.7172918657709805  1.0000
  C   C30       1.0  0.4701235108716016  0.1498322534117706  0.28270813404469053  1.0000
  C   C31       1.0  0.41057680525306395  0.9264344297810896  0.72106481437866  1.0000
  C   C32       1.0  0.5894231949137531  0.07356556988178703  0.2789351862610078  1.0000
  C   C33       1.0  0.08378163922903316  0.17892007013128744  0.35901771068998906  1.0000
  C   C34       1.0  0.9162183599595727  0.8210799295346937  0.640982289382797  1.0000
  C   C35       1.0  0.018945213221032226  0.11828813853329216  0.31980155632671986  1.0000
  C   C36       1.0  0.9810547869447124  0.8817118611307264  0.6801984436560556  1.0000
  C   C37       1.0  0.978103848831204  0.16576061142595455  0.23194566557456575  1.0000
  C   C38       1.0  0.021896151334540453  0.834239388238064  0.7680543344082097  1.0000
  C   C39       1.0  0.002190688795938842  0.2719796476466569  0.18362302932450886  1.0000
  C   C40       1.0  0.9978093111896336  0.7280203528573933  0.8163769704911621  1.0000
  C   C41       1.0  0.06576806863875705  0.33311461595677844  0.22286288477379365  1.0000
  C   C42       1.0  0.9342319313468153  0.6668853845472716  0.7771371150418774  1.0000
  C   C43       1.0  0.10575928143265198  0.286595591170488  0.31119969018070687  1.0000
  C   C44       1.0  0.8942407175757817  0.7134044093355246  0.6888003097249747  1.0000
  C   C45       1.0  0.37236936259970976  0.626074137607607  0.42071914836663626  1.0000
  C   C46       1.0  0.6276306375660348  0.37392586205641154  0.5792808516161393  1.0000
  C   C47       1.0  0.47811530868112717  0.67641850430351  0.3734484931256087  1.0000
  C   C48       1.0  0.5218846913044451  0.32358149620054005  0.6265515066900623  1.0000
  C   C49       1.0  0.4782748053285208  0.7874725047858878  0.3728105130897606  1.0000
  C   C50       1.0  0.5217251946570516  0.2125274957181622  0.6271894867259104  1.0000
  C   C51       1.0  0.3747150432904112  0.8486220965431766  0.4185072464029644  1.0000
  C   C52       1.0  0.625284956695161  0.1513779039608737  0.5814927534127066  1.0000
  C   C53       1.0  0.268343472915626  0.7990671223600389  0.46542011396969796  1.0000
  C   C54       1.0  0.7316565262740524  0.20093287730479997  0.5345798867599804  1.0000
  C   C55       1.0  0.2669899889599008  0.6879351535027552  0.4658421016391018  1.0000
  C   C56       1.0  0.7330100110267441  0.3120648470001527  0.5341578988334615  1.0000
  C   C57       1.0  0.26279491579259023  0.5345959275879124  0.8193400207925501  1.0000
  C   C58       1.0  0.7372050841929819  0.46540407291613767  0.1806599790231211  1.0000
  C   C59       1.0  0.3372343027184664  0.5994071829207924  0.8466592937260842  1.0000
  C   C60       1.0  0.6627656972671059  0.40059281758325754  0.15334070608958697  1.0000
  C   C61       1.0  0.34037005008664334  0.5902850808691013  0.939842229739202  1.0000
  C   C62       1.0  0.659629949898929  0.4097149196349489  0.060157770076469226  1.0000
  C   C63       1.0  0.26933946540816117  0.5181037331521723  0.0054449299221116295  1.0000
  C   C64       1.0  0.7306605347575835  0.4818962665118462  0.9945550700606638  1.0000
  C   C65       1.0  0.19439010645681334  0.45375385448279815  0.9787971856961163  1.0000
  C   C66       1.0  0.805609893528759  0.546246146021252  0.021202814119554776  1.0000
  C   C67       1.0  0.19161512220131  0.4620309519546651  0.8855188575154376  1.0000
  C   C68       1.0  0.8083848779644345  0.5379690477093535  0.11448114246733807  1.0000
  C   C69       1.0  0.704910864305571  0.28853995177006486  0.8110581108869337  1.0000
  C   C70       1.0  0.2950891358601736  0.7114600478939537  0.18894188909584186  1.0000
  C   C71       1.0  0.5781327275993424  0.33185061633929114  0.8456571319433165  1.0000
  C   C72       1.0  0.4218672725664022  0.6681493833247274  0.1543428680394591  1.0000
  C   C73       1.0  0.48245457957513666  0.2632158404764654  0.8702175019529954  1.0000
  C   C74       1.0  0.5175454205906079  0.7367841591875532  0.12978249802978  1.0000
  C   C75       1.0  0.5121746437438953  0.1531381887516936  0.8601334461338688  1.0000
  C   C76       1.0  0.48782535642184927  0.846861810912325  0.1398665538489067  1.0000
  C   C77       1.0  0.6380226639776828  0.10991084103459951  0.8246511778050445  1.0000
  C   C78       1.0  0.36197733618806177  0.8900891586294191  0.17534882217773096  1.0000
  C   C79       1.0  0.7348244483575016  0.1777016221810967  0.8006616672062217  1.0000
  C   C80       1.0  0.26517555180824304  0.8222983774829218  0.19933833277655374  1.0000
  C   C81       1.0  0.06236354067547964  0.13747683078017048  0.007880821430393764  1.0000
  C   C82       1.0  0.937636459490265  0.8625231688838482  0.9921191785523819  1.0000
  S   S1        1.0  0.20037770324008064  0.04162569851367379  0.8023571607900152  1.0000
  S   S2        1.0  0.7996222967465642  0.9583743019892342  0.19764283968254814  1.0000
  S   S3        1.0  0.3294569651416361  0.006194167184201075  0.6244005908650712  1.0000
  S   S4        1.0  0.6705430350251809  0.9938058324786754  0.37559940977459666  1.0000
  S   S5        1.0  0.14344039971360478  0.12828953986373007  0.467049859855809  1.0000
  S   S6        1.0  0.8565595994750009  0.8717104598022509  0.5329501402169771  1.0000
  S   S7        1.0  0.1865533315940397  0.35540831691545965  0.3669592024494949  1.0000
  S   S8        1.0  0.813446668392605  0.6445916835874484  0.6330407980230685  1.0000
  S   S9        1.0  0.36494771883239346  0.48530871495130534  0.43140874187058076  1.0000
  S   S10       1.0  0.6350522813333511  0.5146912847127132  0.5685912581121948  1.0000
  S   S11       1.0  0.13917546393139374  0.6164373397608334  0.518674787375246  1.0000
  S   S12       1.0  0.8608245360541787  0.38356266074321677  0.48132521244042503  1.0000
  S   S13       1.0  0.24601745941603836  0.5416661378401288  0.7049896137093322  1.0000
  S   S14       1.0  0.7539825407497064  0.4583338618238897  0.2950103862734433  1.0000
  S   S15       1.0  0.1041262317158888  0.38440728111296013  0.8445827552762615  1.0000
  S   S16       1.0  0.8958737684498558  0.6155927185510585  0.155417244706514  1.0000
  S   S17       1.0  0.8331139566916606  0.36512567708870763  0.7776855606564311  1.0000
  S   S18       1.0  0.16688604329391174  0.6348743234153424  0.22231443915924  1.0000
  S   S19       1.0  0.8956396371977405  0.13273512966465306  0.7571297332705774  1.0000
  S   S20       1.0  0.10436036278783173  0.8672648708393971  0.2428702665450936  1.0000
  S   S21       1.0  0.912944388530713  0.16260538230732455  0.9912236704252518  1.0000
  S   S22       1.0  0.08705561145485935  0.8373946181967256  0.008776329390419318  1.0000
  S   S23       1.0  0.2120216486471408  0.11454154737693045  0.024595891257884278  1.0000
  S   S24       1.0  0.7879783515196763  0.8854584522859461  0.9754041093817837  1.0000
