data_image0
_chemical_formula_structural       H48C52N12O20S4Cl4
_chemical_formula_sum              "H48 C52 N12 O20 S4 Cl4"
_cell_length_a       6.819486669168278
_cell_length_b       28.52438115215897
_cell_length_c       7.3852244800038145
_cell_angle_alpha    90.0
_cell_angle_beta     91.69395505472222
_cell_angle_gamma    90.0

_space_group_name_H-M_alt    "P 1"
_space_group_IT_number       1

loop_
  _space_group_symop_operation_xyz
  'x, y, z'

loop_
  _atom_site_type_symbol
  _atom_site_label
  _atom_site_symmetry_multiplicity
  _atom_site_fract_x
  _atom_site_fract_y
  _atom_site_fract_z
  _atom_site_occupancy
  H   H1        1.0  0.6133602563018326  0.5129299388461088  0.6945413200355406  1.0000
  H   H2        1.0  0.8866397429124994  0.01292993905924177  0.8054586797545694  1.0000
  H   H3        1.0  0.38663974318892647  0.4870700610782026  0.30545868027608164  1.0000
  H   H4        1.0  0.11336025657825972  0.987070061215647  0.19454132055705298  1.0000
  H   H5        1.0  0.8183747954992273  0.24540043665312572  0.38152736825472033  1.0000
  H   H6        1.0  0.6816252038980192  0.7454004364399928  0.11847263242031508  1.0000
  H   H7        1.0  0.18162520399153162  0.7545995636217631  0.6184726320569021  1.0000
  H   H8        1.0  0.3183747955927398  0.25459956348431867  0.8815273678913073  1.0000
  H   H9        1.0  0.07255127732180836  0.24275533527134552  0.4013161282015806  1.0000
  H   H10       1.0  0.42744872240176446  0.7427553354087899  0.09868387127690709  1.0000
  H   H11       1.0  0.9274487221253372  0.7572446646529659  0.5986838707553949  1.0000
  H   H12       1.0  0.5725512770889946  0.2572446645155215  0.9013161290347151  1.0000
  H   H13       1.0  0.6805046808442963  0.3517942551135938  0.7047504278753831  1.0000
  H   H14       1.0  0.8194953198364143  0.8517942552510382  0.7952495719144989  1.0000
  H   H15       1.0  0.31949531864646274  0.6482057448107177  0.29524957243623934  1.0000
  H   H16       1.0  0.18050468107711004  0.14820574467327327  0.20475042704224838  1.0000
  H   H17       1.0  0.041655517358397544  0.46666975872296795  0.5351334256401217  1.0000
  H   H18       1.0  0.45834448222587393  0.966669758509835  0.9648665743080875  1.0000
  H   H19       1.0  0.9583444821323615  0.5333302415519208  0.4648665746715006  1.0000
  H   H20       1.0  0.5416555172648851  0.03333024141447644  0.03513342600353468  1.0000
  H   H21       1.0  0.30543207445100284  0.4112174384232765  0.46046201779210844  1.0000
  H   H22       1.0  0.19456792527256997  0.9112174382101437  0.03953798168637922  1.0000
  H   H23       1.0  0.6945679250397562  0.588782561501035  0.5395379825195138  1.0000
  H   H24       1.0  0.8054320742181891  0.08878256171416786  0.9604620186252432  1.0000
  H   H25       1.0  0.6379959554338407  0.5285089807762215  0.1667304463883284  1.0000
  H   H26       1.0  0.8620040439197926  0.028508980638777152  0.33326955293205995  1.0000
  H   H27       1.0  0.36200404405691833  0.47149101914808994  0.8332695539232939  1.0000
  H   H28       1.0  0.1379959555273531  0.9714910192855344  0.6667304460249154  1.0000
  H   H29       1.0  0.8568756700941896  0.5075576855732836  0.0671225649545635  1.0000
  H   H30       1.0  0.6431243307694356  0.00755768543583927  0.4328774357202438  1.0000
  H   H31       1.0  0.14312433086294812  0.49244231435102787  0.9328774353568308  1.0000
  H   H32       1.0  0.35687567018770205  0.9924423144884722  0.5671225645911504  1.0000
  H   H33       1.0  0.618131625740838  0.36432781221665267  0.2106047079074731  1.0000
  H   H34       1.0  0.8818683750791739  0.8643278123540972  0.2893952914126872  1.0000
  H   H35       1.0  0.3818683751726863  0.6356721877076588  0.7893952910492741  1.0000
  H   H36       1.0  0.1181316244115851  0.1356721875702144  0.7106047088989351  1.0000
  H   H37       1.0  0.8605299998248298  0.3006704346800829  0.1399320873978292  1.0000
  H   H38       1.0  0.6394699995724169  0.8006704348175273  0.3600679132772061  1.0000
  H   H39       1.0  0.1394699996659292  0.6993295652442286  0.8600679129137931  1.0000
  H   H40       1.0  0.3605299999183422  0.19932956545736152  0.6399320870344162  1.0000
  H   H41       1.0  0.19285190493163992  0.32428359657155553  0.03312778460169258  1.0000
  H   H42       1.0  0.3071480948355463  0.8242835967089999  0.4668722162314421  1.0000
  H   H43       1.0  0.8071480945591191  0.6757164033527561  0.9668722157099298  1.0000
  H   H44       1.0  0.6928519046552128  0.17571640356588888  0.5331277840801804  1.0000
  H   H45       1.0  0.26326533749385966  0.4086315663720465  0.9849522952299528  1.0000
  H   H46       1.0  0.23673466209041175  0.908631566509491  0.5150477047182566  1.0000
  H   H47       1.0  0.736734663463278  0.5913684335522649  0.015047705081441435  1.0000
  H   H48       1.0  0.763265337356734  0.09136843376539787  0.4849522942387189  1.0000
  C   C1        1.0  0.9669703486533562  0.3334406176689345  0.6103807527547493  1.0000
  C   C2        1.0  0.5330296520273543  0.8334406174558016  0.8896192470351326  1.0000
  C   C3        1.0  0.03302965230378153  0.6665593822553769  0.38961924755664495  1.0000
  C   C4        1.0  0.46697034888617  0.16655938246850988  0.11038075192161467  1.0000
  C   C5        1.0  0.8174350885618551  0.3647149119381541  0.6514538223161965  1.0000
  C   C6        1.0  0.6825649121188555  0.8647149117250211  0.8485461774736854  1.0000
  C   C7        1.0  0.1825649108852906  0.6352850879861575  0.3485461766407788  1.0000
  C   C8        1.0  0.31743508883828225  0.1352850881992903  0.15145382283770886  1.0000
  C   C9        1.0  0.8439970611397727  0.41285123302696675  0.6268166774992071  1.0000
  C   C10       1.0  0.6560029380745592  0.9128512328138338  0.8731833222909029  1.0000
  C   C11       1.0  0.15600293830737294  0.587148767247922  0.37318332145776834  1.0000
  C   C12       1.0  0.3439970614161999  0.08714876711047764  0.12681667802071941  1.0000
  C   C13       1.0  0.01927251504571742  0.42939741986559954  0.5562660515746393  1.0000
  C   C14       1.0  0.480727484538554  0.9293974200030439  0.9437339483735699  1.0000
  C   C15       1.0  0.9807274844450415  0.5706025800587119  0.44373394873698313  1.0000
  C   C16       1.0  0.5192725149085916  0.0706025799212675  0.05626605058340527  1.0000
  C   C17       1.0  0.1687285461258561  0.398535983282483  0.5146492430962474  1.0000
  C   C18       1.0  0.33127145350202875  0.8985359834199274  0.985350758206609  1.0000
  C   C19       1.0  0.8312714533649029  0.6014640166418285  0.48535075721537496  1.0000
  C   C20       1.0  0.6687285459887303  0.10146401685496137  0.014649242105013408  1.0000
  C   C21       1.0  0.1444919509455423  0.3506311942982503  0.5443086582800521  1.0000
  C   C22       1.0  0.3555080486387291  0.8506311940851174  0.9556913416681572  1.0000
  C   C23       1.0  0.8555080485016033  0.6493688059766385  0.4556913406769232  1.0000
  C   C24       1.0  0.6444919508520298  0.1493688058391941  0.04430865864346518  1.0000
  C   C25       1.0  0.6861814214155505  0.4453984225715059  0.6825666006544149  1.0000
  C   C26       1.0  0.8138185793087733  0.9453984227089504  0.817433400490114  1.0000
  C   C27       1.0  0.3138185795415872  0.5546015773528056  0.3174333996569795  1.0000
  C   C28       1.0  0.1861814216483643  0.054601577215361144  0.18256659982128015  1.0000
  C   C29       1.0  0.6773049102317221  0.457863993624678  0.17509272683678007  1.0000
  C   C30       1.0  0.8226950906319032  0.9578639937621224  0.3249072738380272  1.0000
  C   C31       1.0  0.3226950907254156  0.5421360062996334  0.8249072734746141  1.0000
  C   C32       1.0  0.17730491032523452  0.04213600616218907  0.675092726473367  1.0000
  C   C33       1.0  0.8160953997700646  0.4191377070101693  0.13031933363760523  1.0000
  C   C34       1.0  0.6839045995835685  0.9191377071476136  0.3696806656827832  1.0000
  C   C35       1.0  0.18390459967708098  0.5808622929141422  0.8696806653193702  1.0000
  C   C36       1.0  0.31609539990719043  0.08086229277669783  0.6303193346288392  1.0000
  C   C37       1.0  0.7623508522163323  0.3724729610547868  0.15936312023599458  1.0000
  C   C38       1.0  0.737649148647293  0.8724729608416538  0.34063688043881263  1.0000
  C   C39       1.0  0.23764914874080537  0.627527039220102  0.8406368800753996  1.0000
  C   C40       1.0  0.26235085230984473  0.12752703908265764  0.6593631198725816  1.0000
  C   C41       1.0  0.8978341654693999  0.33747370639350066  0.12180617856701641  1.0000
  C   C42       1.0  0.6021658338842335  0.837473706530945  0.378193820753372  1.0000
  C   C43       1.0  0.10216583402135918  0.6625262935308108  0.878193821744606  1.0000
  C   C44       1.0  0.3978341655629122  0.16252629374394373  0.6218061782036034  1.0000
  C   C45       1.0  0.08162103717874938  0.35040392731687675  0.06088461656810265  1.0000
  C   C46       1.0  0.41837896254482343  0.8504039271037438  0.43911538291038504  1.0000
  C   C47       1.0  0.9183789623120097  0.6495960726074347  0.9391153837435197  1.0000
  C   C48       1.0  0.5816210383687009  0.14959607282056764  0.5608846160463622  1.0000
  C   C49       1.0  0.12083825413140029  0.3978557708040247  0.033795292143719374  1.0000
  C   C50       1.0  0.37916174705855127  0.8978557705908917  0.4662047073345402  1.0000
  C   C51       1.0  0.8791617468257374  0.6021442294708641  0.9662047081676749  1.0000
  C   C52       1.0  0.6208382538985865  0.1021442293334197  0.533795292976854  1.0000
  N   N1        1.0  0.9409647668984535  0.24325144769967524  0.46568775592858547  1.0000
  N   N2        1.0  0.5590352324551796  0.7432514478371197  0.034312243391802943  1.0000
  N   N3        1.0  0.05903523259230544  0.7567485522246362  0.5343122443830369  1.0000
  N   N4        1.0  0.44096476699196596  0.2567485524377691  0.9656877555651724  1.0000
  N   N5        1.0  0.990699184863726  0.43186343480295347  0.06524159692682398  1.0000
  N   N6        1.0  0.5093008144899073  0.9318634349403979  0.4347584023935644  1.0000
  N   N7        1.0  0.009300814627033005  0.568136565121358  0.9347584033847983  1.0000
  N   N8        1.0  0.4906991850008518  0.0681365649839136  0.565241597918058  1.0000
  N   N9        1.0  0.7291267043530176  0.5011836857648342  0.13164659996205164  1.0000
  N   N10       1.0  0.7708732965106077  0.001183685977967114  0.36835340071275563  1.0000
  N   N11       1.0  0.27087329513774144  0.49881631415947725  0.8683534003495706  1.0000
  N   N12       1.0  0.22912670444652994  0.9988163139463443  0.6316465995986386  1.0000
  O   O1        1.0  0.08087633659917381  0.2560805891295254  0.7728601276384075  1.0000
  O   O2        1.0  0.4191236629850976  0.7560805892669699  0.7271398723098018  1.0000
  O   O3        1.0  0.9191236628479719  0.7439194107947861  0.2271398713185679  1.0000
  O   O4        1.0  0.5808763365056614  0.24391941065734168  0.27286012800182047  1.0000
  O   O5        1.0  0.724563075654871  0.2688115955644368  0.7046015903412477  1.0000
  O   O6        1.0  0.7754369235594608  0.768811595351304  0.7953984094488623  1.0000
  O   O7        1.0  0.275436923835888  0.7311884043598748  0.2953984099703746  1.0000
  O   O8        1.0  0.22456307593129823  0.2311884045730076  0.20460159086276003  1.0000
  O   O9        1.0  0.5375145540170626  0.4307449674178132  0.7577079715182491  1.0000
  O   O10       1.0  0.9624854451972692  0.9307449672046803  0.7422920282718608  1.0000
  O   O11       1.0  0.4624854454736964  0.5692550325064982  0.24229202879337317  1.0000
  O   O12       1.0  0.03751455429348982  0.06925503271963117  0.2577079720397615  1.0000
  O   O13       1.0  0.7222236929054854  0.4900046961734732  0.6481127886113116  1.0000
  O   O14       1.0  0.7777763063088465  0.9900046963109175  0.8518872111787984  1.0000
  O   O15       1.0  0.2777763065852737  0.5099953037508383  0.3518872117003108  1.0000
  O   O16       1.0  0.22222369318191254  0.009995303963971202  0.14811278913282389  1.0000
  O   O17       1.0  0.5194621667148654  0.4482576898616511  0.25345881393536035  1.0000
  O   O18       1.0  0.980537832682381  0.9482576896485182  0.24654118673967498  1.0000
  O   O19       1.0  0.4805378327758935  0.5517423104132377  0.746541186376262  1.0000
  O   O20       1.0  0.01946216680837789  0.05174231027579331  0.7534588135719473  1.0000
  S   S1        1.0  0.9261120927543552  0.27259846474921573  0.6502568197816129  1.0000
  S   S2        1.0  0.5738879079263552  0.7725984645360828  0.849743180008269  1.0000
  S   S3        1.0  0.07388790669279027  0.7274015351750958  0.3497431791753625  1.0000
  S   S4        1.0  0.42611209303078257  0.22740153538822866  0.15025682030312518  1.0000
  Cl  Cl1       1.0  0.3367946805470274  0.31400332831838057  0.49719346041974477  1.0000
  Cl  Cl2       1.0  0.16320531922015877  0.814003328455825  0.0028065404133898763  1.0000
  Cl  Cl3       1.0  0.6632053189437316  0.6859966716059308  0.5028065398918776  1.0000
  Cl  Cl4       1.0  0.836794681736979  0.1859966714684865  0.9971934598980043  1.0000
