data_image0
_chemical_formula_structural       H24C26N6O10S2Cl2
_chemical_formula_sum              "H24 C26 N6 O10 S2 Cl2"
_cell_length_a       6.877601364816549
_cell_length_b       7.544647560310238
_cell_length_c       14.85558509945261
_cell_angle_alpha    89.8208989446839
_cell_angle_beta     83.7277115564752
_cell_angle_gamma    72.79393392278678

_space_group_name_H-M_alt    "P 1"
_space_group_IT_number       1

loop_
  _space_group_symop_operation_xyz
  'x, y, z'

loop_
  _atom_site_type_symbol
  _atom_site_label
  _atom_site_symmetry_multiplicity
  _atom_site_fract_x
  _atom_site_fract_y
  _atom_site_fract_z
  _atom_site_occupancy
  H   H1        1.0  0.796134858215659  0.17972208771806086  0.6101896804354094  1.0000
  H   H2        1.0  0.20386514232818598  0.8202779131313246  0.38981031922774184  1.0000
  H   H3        1.0  0.7940621674501502  0.6262125227322688  0.05903943727097147  1.0000
  H   H4        1.0  0.20593783190183584  0.37378747678123947  0.9409605630686212  1.0000
  H   H5        1.0  0.944624501622075  0.38822574374148433  0.06332447580063957  1.0000
  H   H6        1.0  0.05537549892177013  0.6117742571079011  0.9366755238625118  1.0000
  H   H7        1.0  0.767812781219531  0.8400697788058613  0.39477793691933183  1.0000
  H   H8        1.0  0.23218721786781593  0.15993022205220728  0.6052220627426184  1.0000
  H   H9        1.0  0.7895539459148456  0.5945193496613983  0.508554180567188  1.0000
  H   H10       1.0  0.2104460534371405  0.40548064985210985  0.4914458197724044  1.0000
  H   H11       1.0  0.6909298441761113  0.22938702430690447  0.30909045053786033  1.0000
  H   H12       1.0  0.3090701549112358  0.7706129765511641  0.6909095491240899  1.0000
  H   H13       1.0  0.27974683897026015  0.8717574321378306  0.9710659034538972  1.0000
  H   H14       1.0  0.7202531620146214  0.12824256732405065  0.02893409620937599  1.0000
  H   H15       1.0  0.33671887710269227  0.7824407059335148  0.07693826488602656  1.0000
  H   H16       1.0  0.6632811224256911  0.21755929353704967  0.9230617347760455  1.0000
  H   H17       1.0  0.24639275593038462  0.12952292416235175  0.4281853867091904  1.0000
  H   H18       1.0  0.7536072431569624  0.8704770766957168  0.5718146129527597  1.0000
  H   H19       1.0  0.25220134368339825  0.4038461974018785  0.32960152693800854  1.0000
  H   H20       1.0  0.7477986566840495  0.5961538034904508  0.6703984734026633  1.0000
  H   H21       1.0  0.2311245849582643  0.37030949115931644  0.16317967297767463  1.0000
  H   H22       1.0  0.7688754143937218  0.6296905083541918  0.8368203273619178  1.0000
  H   H23       1.0  0.1653165280790177  0.8258634519054339  0.21363919446221336  1.0000
  H   H24       1.0  0.8346834729058638  0.17413654755644747  0.7863608052010598  1.0000
  C   C1        1.0  0.6970649685829554  0.49917734230850097  0.26308705799106785  1.0000
  C   C2        1.0  0.3029350317844924  0.5008226585838284  0.7369129423496039  1.0000
  C   C3        1.0  0.720693093751394  0.6710692541051405  0.28767689059704077  1.0000
  C   C4        1.0  0.27930690577698913  0.32893074536542405  0.7123231090650313  1.0000
  C   C5        1.0  0.7532116357973596  0.705617441409689  0.3760781738057057  1.0000
  C   C6        1.0  0.2467883631135902  0.29438255949132325  0.6239218265337649  1.0000
  C   C7        1.0  0.7626367632395246  0.5689761305877793  0.4397757713344428  1.0000
  C   C8        1.0  0.23736323774535695  0.43102386887410205  0.5602242283288303  1.0000
  C   C9        1.0  0.7394412741770253  0.3975380309528461  0.41649997377288467  1.0000
  C   C10       1.0  0.26055872491032134  0.6024619699052225  0.5835000258890656  1.0000
  C   C11       1.0  0.7069606011666631  0.36331507577220706  0.3277667543539897  1.0000
  C   C12       1.0  0.2930393977442864  0.6366849251288053  0.6722332459854808  1.0000
  C   C13       1.0  0.7507155599157156  0.24821794463596208  0.48389128733964154  1.0000
  C   C14       1.0  0.24928443917163126  0.7517820562221065  0.5161087123223086  1.0000
  C   C15       1.0  0.2285066510119388  0.12953258652558008  0.35611920101156574  1.0000
  C   C16       1.0  0.7714933499729428  0.8704674129363013  0.6438807986517076  1.0000
  C   C17       1.0  0.23496372530817  0.27737322730981023  0.30085518495065006  1.0000
  C   C18       1.0  0.7650362756767115  0.7226267721520712  0.6991448147126232  1.0000
  C   C19       1.0  0.22155907273353187  0.2591854520593856  0.2086961208178724  1.0000
  C   C20       1.0  0.7784409282513498  0.7408145474024957  0.7913038788454008  1.0000
  C   C21       1.0  0.20360060942517272  0.09297999257149103  0.17419277229327643  1.0000
  C   C22       1.0  0.7963993915597087  0.9070200068903904  0.8258072273699968  1.0000
  C   C23       1.0  0.18787626640726948  0.9552034495095632  0.2353976985433849  1.0000
  C   C24       1.0  0.8121237326800773  0.04479655134850528  0.7646023011185653  1.0000
  C   C25       1.0  0.20738856632442146  0.06762160087512337  0.07415090704232574  1.0000
  C   C26       1.0  0.7926114332039618  0.9323783985954411  0.9258490926197463  1.0000
  N   N1        1.0  0.8050954640226501  0.49230738819614495  0.07692154183191725  1.0000
  N   N2        1.0  0.19490453696223162  0.5076926112657364  0.9230784578313559  1.0000
  N   N3        1.0  0.20090515402961345  0.973393109140227  0.3239579356182901  1.0000
  N   N4        1.0  0.7990948450577333  0.026606891717841436  0.6760420640436602  1.0000
  N   N5        1.0  0.27749779994981394  0.8951702140132214  0.03901181644655278  1.0000
  N   N6        1.0  0.7225021994021722  0.10482978550028679  0.9609881838930399  1.0000
  O   O1        1.0  0.6739709791652823  0.2514000206605231  0.1480310396963403  1.0000
  O   O2        1.0  0.326029021643202  0.7485999788443021  0.8519689606444534  1.0000
  O   O3        1.0  0.4421902088451237  0.5752658700283864  0.14224821234427432  1.0000
  O   O4        1.0  0.5578097900658258  0.42473413087262596  0.8577517879951964  1.0000
  O   O5        1.0  0.7270247440461769  0.0977048982741167  0.4635176654441307  1.0000
  O   O6        1.0  0.2729752554822063  0.9022951011964477  0.5364823342179414  1.0000
  O   O7        1.0  0.788378321039839  0.2929692643764696  0.5651095727639118  1.0000
  O   O8        1.0  0.211621678047508  0.707030736481599  0.4348904268980383  1.0000
  O   O9        1.0  0.14905666142714816  0.20693536402659773  0.025844752847346854  1.0000
  O   O10       1.0  0.850943339116697  0.7930646368227878  0.9741552468158043  1.0000
  S   S1        1.0  0.6443510641195134  0.45003604415547477  0.15241526532962998  1.0000
  S   S2        1.0  0.355648936688971  0.5499639553493503  0.8475847350111637  1.0000
  Cl  Cl1       1.0  0.7115226656344046  0.8462273728763529  0.21167761775201557  1.0000
  Cl  Cl2       1.0  0.28847733535047704  0.15377262658552848  0.7883223819112577  1.0000
