data_image0
_chemical_formula_structural       H48C52N12O20S4Cl4
_chemical_formula_sum              "H48 C52 N12 O20 S4 Cl4"
_cell_length_a       7.451708802004171
_cell_length_b       13.806471076181833
_cell_length_c       15.39131903589986
_cell_angle_alpha    66.93915922987246
_cell_angle_beta     83.84628422410134
_cell_angle_gamma    81.63886296540933

_space_group_name_H-M_alt    "P 1"
_space_group_IT_number       1

loop_
  _space_group_symop_operation_xyz
  'x, y, z'

loop_
  _atom_site_type_symbol
  _atom_site_label
  _atom_site_symmetry_multiplicity
  _atom_site_fract_x
  _atom_site_fract_y
  _atom_site_fract_z
  _atom_site_occupancy
  H   H1        1.0  0.3488954426760493  0.33614684451956944  0.30377704929164584  1.0000
  H   H2        1.0  0.6511045579989357  0.6638531555355921  0.6962229506121612  1.0000
  H   H3        1.0  0.44173980386462075  0.8934314133410868  0.29185425481795124  1.0000
  H   H4        1.0  0.5582601968103641  0.10656858671407488  0.7081457450858557  1.0000
  H   H5        1.0  0.6177171799716832  0.9072909944719952  0.35642235797292476  1.0000
  H   H6        1.0  0.38228282070330183  0.0927090055831662  0.6435776419308822  1.0000
  H   H7        1.0  0.950762335048835  0.5549883410486433  0.31606972457540844  1.0000
  H   H8        1.0  0.04923766562614999  0.4450116590065183  0.6839302753283986  1.0000
  H   H9        1.0  0.7369079749707345  0.4443629472689178  0.29567950179601554  1.0000
  H   H10       1.0  0.2630920259034377  0.555637052054319  0.704320498107433  1.0000
  H   H11       1.0  0.2930772539435319  0.6123615891023115  0.4006981536291479  1.0000
  H   H12       1.0  0.7069227453897311  0.38763841095168117  0.5993018462749496  1.0000
  H   H13       1.0  0.06140264432557755  0.4054928359337169  0.10675039851803006  1.0000
  H   H14       1.0  0.9385973550076855  0.594507164120276  0.8932496013860675  1.0000
  H   H15       1.0  0.36433005103436983  0.013567315187224113  0.0651405134677786  1.0000
  H   H16       1.0  0.6356699482988931  0.9864326848667684  0.9348594864363191  1.0000
  H   H17       1.0  0.2116420549990414  0.006567985798625253  0.9900230767288949  1.0000
  H   H18       1.0  0.7883579442599046  0.9934320139520556  0.009976923882425697  1.0000
  H   H19       1.0  0.6599865129194499  0.6423523877258013  0.09807462404708024  1.0000
  H   H20       1.0  0.3400134877555351  0.35764761232936015  0.9019253758567268  1.0000
  H   H21       1.0  0.4491018756284002  0.5247693269547747  0.08515245393438962  1.0000
  H   H22       1.0  0.5508981250465848  0.47523067310038664  0.9148475459694175  1.0000
  H   H23       1.0  0.9917923448146967  0.7297042813320952  0.13259516918234374  1.0000
  H   H24       1.0  0.00820765586028836  0.27029571872306624  0.8674048307214632  1.0000
  H   H25       1.0  0.0888817518689456  0.3545538474175021  0.3997209498125029  1.0000
  H   H26       1.0  0.9111182488060393  0.6454461526376594  0.6002790500913042  1.0000
  H   H27       1.0  0.9078939129845967  0.27521137111415545  0.451148778208943  1.0000
  H   H28       1.0  0.09210608769038828  0.724788628941006  0.5488512216948641  1.0000
  H   H29       1.0  0.026175647662868114  0.893464649620447  0.37262383638745605  1.0000
  H   H30       1.0  0.9738243516703947  0.10653535043354571  0.6273761635166415  1.0000
  H   H31       1.0  0.21534234513926404  0.0270960096745121  0.3706664399294195  1.0000
  H   H32       1.0  0.7846576555357209  0.9729039903806492  0.6293335599743877  1.0000
  H   H33       1.0  0.7168095693299527  0.2331980413605976  0.37048131997513817  1.0000
  H   H34       1.0  0.28319043154421963  0.7668019579626392  0.6295186799283103  1.0000
  H   H35       1.0  0.5491417891671456  0.088552036921542  0.3769666387986812  1.0000
  H   H36       1.0  0.45085821016611727  0.9114479631324506  0.6230333611054165  1.0000
  H   H37       1.0  0.2838067097479729  0.07347190515716225  0.1990277317587467  1.0000
  H   H38       1.0  0.716193290927012  0.9265280948979993  0.8009722681450604  1.0000
  H   H39       1.0  0.3397248389546331  0.17231319294120342  0.23211941435742064  1.0000
  H   H40       1.0  0.6602751617203518  0.827686807113958  0.7678805855463864  1.0000
  H   H41       1.0  0.11152006513699737  0.22024478015516588  0.0850161175208552  1.0000
  H   H42       1.0  0.8884799341962656  0.7797552198988268  0.9149838823832425  1.0000
  H   H43       1.0  0.8842007445452257  0.0960664402381402  0.10123409190769943  1.0000
  H   H44       1.0  0.11579925612975929  0.9039335598170213  0.8987659079961077  1.0000
  H   H45       1.0  0.4713912286542145  0.32220657847061096  0.1578652776396922  1.0000
  H   H46       1.0  0.5286087720207705  0.6777934215845505  0.8421347222641148  1.0000
  H   H47       1.0  0.7201160348073828  0.43259432089332484  0.1445738404312433  1.0000
  H   H48       1.0  0.2798839645258803  0.567405679160668  0.8554261594728542  1.0000
  C   C1        1.0  0.5564934576280127  0.6638085429604398  0.3923442332540976  1.0000
  C   C2        1.0  0.4435065430469724  0.33619145709472165  0.6076557666497093  1.0000
  C   C3        1.0  0.742490908058174  0.6466347003817876  0.367781571712576  1.0000
  C   C4        1.0  0.2575090926168109  0.35336529967337404  0.632218428191231  1.0000
  C   C5        1.0  0.806348428263033  0.5673300906780112  0.3336304962667908  1.0000
  C   C6        1.0  0.19365157241195188  0.4326699093771501  0.6663695036370163  1.0000
  C   C7        1.0  0.6863730576011821  0.5050669373875393  0.3233262691309592  1.0000
  C   C8        1.0  0.31362694307380296  0.4949330626676221  0.6766737307728479  1.0000
  C   C9        1.0  0.5012698236413957  0.5212684606190126  0.3473701082045855  1.0000
  C   C10       1.0  0.4987301770335893  0.478731539436149  0.6526298916992215  1.0000
  C   C11       1.0  0.43722769270021594  0.6005104025261673  0.38199238677591435  1.0000
  C   C12       1.0  0.5627723079747691  0.3994895975289942  0.6180076131278925  1.0000
  C   C13       1.0  0.3692992935866501  0.45549664884271807  0.33852634592457614  1.0000
  C   C14       1.0  0.6307007070883349  0.5445033512124433  0.6614736539792309  1.0000
  C   C15       1.0  0.25519424388086825  0.7786808175552565  0.13015584373126557  1.0000
  C   C16       1.0  0.7448057567941168  0.22131918249990487  0.8698441561725414  1.0000
  C   C17       1.0  0.44409833221221456  0.751346840945668  0.1229182196801401  1.0000
  C   C18       1.0  0.5559016671210485  0.24865315910832472  0.8770817802239574  1.0000
  C   C19       1.0  0.5134705085578105  0.6615487405900141  0.10440209068227478  1.0000
  C   C20       1.0  0.48652949211717444  0.3384512594651474  0.8955979092215323  1.0000
  C   C21       1.0  0.39565961003474526  0.5953296247154245  0.09868424078919225  1.0000
  C   C22       1.0  0.6043403906402397  0.40467037533973715  0.9013157591146148  1.0000
  C   C23       1.0  0.2079221807662072  0.6174575142329561  0.1119707117575781  1.0000
  C   C24       1.0  0.7920778199087778  0.38254248582220524  0.888029288146229  1.0000
  C   C25       1.0  0.13820618560857295  0.7106262501590203  0.12560242196816243  1.0000
  C   C26       1.0  0.8617938137246899  0.28937374989497233  0.8743975779359351  1.0000
  C   C27       1.0  0.08038792162696767  0.5434252006726966  0.11232216603234495  1.0000
  C   C28       1.0  0.9196120777062952  0.4565747993812962  0.8876778338717527  1.0000
  C   C29       1.0  0.9613302587834894  0.9692776754046757  0.37255742184113594  1.0000
  C   C30       1.0  0.03866974054977345  0.030722324649316984  0.6274425780629617  1.0000
  C   C31       1.0  0.06804290097829967  0.045187758998956266  0.37034812780833454  1.0000
  C   C32       1.0  0.9319570996966853  0.9548122410562053  0.6296518720954726  1.0000
  C   C33       1.0  0.9822994574353036  0.142914673599709  0.3684675199984543  1.0000
  C   C34       1.0  0.017700541823642536  0.857085326150972  0.6315324806128664  1.0000
  C   C35       1.0  0.7921940042701534  0.15897380400675665  0.3718775759785777  1.0000
  C   C36       1.0  0.2078059964048315  0.8410261960484047  0.6281224239252294  1.0000
  C   C37       1.0  0.6973661147258787  0.0780230639373688  0.37455964730620855  1.0000
  C   C38       1.0  0.3026338846073842  0.9219769361166239  0.6254403525978891  1.0000
  C   C39       1.0  0.09053971051279228  0.2290331931607113  0.3611198368700007  1.0000
  C   C40       1.0  0.9094602887461537  0.7709668065899695  0.63888016374132  1.0000
  C   C41       1.0  0.9687627945450246  0.23834317027158636  0.1030269439704544  1.0000
  C   C42       1.0  0.031237206129960348  0.7616568297835752  0.8969730559333526  1.0000
  C   C43       1.0  0.8423768055227154  0.17010005752360455  0.11117372497336149  1.0000
  C   C44       1.0  0.15762319515226966  0.8298999425315569  0.8888262749304455  1.0000
  C   C45       1.0  0.6598525761014572  0.19833366806712371  0.13233732339818785  1.0000
  C   C46       1.0  0.3401474245735278  0.8016663319880378  0.8676626765056192  1.0000
  C   C47       1.0  0.6117968604170355  0.29434519376749224  0.14422886344162708  1.0000
  C   C48       1.0  0.38820313884191043  0.7056548059831885  0.8557711371696937  1.0000
  C   C49       1.0  0.7479023503896469  0.35723329000614146  0.13575629031222988  1.0000
  C   C50       1.0  0.252097648943616  0.6427667100478512  0.8642437095918677  1.0000
  C   C51       1.0  0.5245602865028896  0.1253018538857169  0.13801489054954044  1.0000
  C   C52       1.0  0.47543971283037356  0.8746981461682758  0.8619851093545572  1.0000
  N   N1        1.0  0.49575459437410496  0.8781138501281872  0.35492732637987473  1.0000
  N   N2        1.0  0.5042454063008799  0.12188614992697426  0.6450726735239324  1.0000
  N   N3        1.0  0.235391398084244  0.9993975124461222  0.056702654044756086  1.0000
  N   N4        1.0  0.764608602590741  0.0006024876090392461  0.9432973458590509  1.0000
  N   N5        1.0  0.7790695802401265  0.9852408572535971  0.3731981781084096  1.0000
  N   N6        1.0  0.2209304203605414  0.014759142498252333  0.6268018225026205  1.0000
  N   N7        1.0  0.02039914022130622  0.2918148087206607  0.40572739872275476  1.0000
  N   N8        1.0  0.9796008590376397  0.7081851910300201  0.5942726018885659  1.0000
  N   N9        1.0  0.9228435004433555  0.3299142601491924  0.11556028850843336  1.0000
  N   N10       1.0  0.07715649888990753  0.6700857399048002  0.8844397113956642  1.0000
  N   N11       1.0  0.37083056661641023  0.1269419998039912  0.19193690420430332  1.0000
  N   N12       1.0  0.6291694340585746  0.8730580002511704  0.8080630956995037  1.0000
  O   O1        1.0  0.27142869129736535  0.755118870304769  0.4508343350281607  1.0000
  O   O2        1.0  0.7285713093776196  0.24488112975039245  0.5491656648756462  1.0000
  O   O3        1.0  0.5660113400881792  0.7536873907382193  0.514904080100958  1.0000
  O   O4        1.0  0.4339886592450838  0.24631260931577348  0.48509591980313965  1.0000
  O   O5        1.0  0.2094181637825528  0.46230356535927  0.3695551478132248  1.0000
  O   O6        1.0  0.7905818368924322  0.5376964346958915  0.6304448520905821  1.0000
  O   O7        1.0  0.4368203207750612  0.39043131283118493  0.29536076781248355  1.0000
  O   O8        1.0  0.5631796785582016  0.6095686872228077  0.704639232091614  1.0000
  O   O9        1.0  0.9650934123073179  0.9069390198164649  0.1316285314615152  1.0000
  O   O10       1.0  0.034906587025944937  0.09306098023752779  0.8683714684425824  1.0000
  O   O11       1.0  0.2193989911084884  0.9015574572088708  0.22765660959009948  1.0000
  O   O12       1.0  0.7806010081504575  0.09844254254181009  0.7723433910212212  1.0000
  O   O13       1.0  0.9137891886050542  0.5631855970148513  0.12196088589706656  1.0000
  O   O14       1.0  0.08621081072820876  0.4368144030391416  0.878039114007031  1.0000
  O   O15       1.0  0.16141437947101492  0.45555348411922486  0.1029279711757975  1.0000
  O   O16       1.0  0.8385856214031574  0.5444465152040118  0.897072028727651  1.0000
  O   O17       1.0  0.24006155740353466  0.2411661374161043  0.3120142325617614  1.0000
  O   O18       1.0  0.7599384432714503  0.7588338626390572  0.6879857673420456  1.0000
  O   O19       1.0  0.5577445063257879  0.06561949952221885  0.09328074972994177  1.0000
  O   O20       1.0  0.4422554943491972  0.9343805005329424  0.9067192501738652  1.0000
  S   S1        1.0  0.4651946085664636  0.7645562964148194  0.4360115467336596  1.0000
  S   S2        1.0  0.5348053907667993  0.23544370363917339  0.563988453170438  1.0000
  S   S3        1.0  0.15786406446490184  0.8997413781908947  0.1418957158805905  1.0000
  S   S4        1.0  0.8421359362100831  0.10025862186426665  0.8581042840232166  1.0000
  Cl  Cl1       1.0  0.8994268900693139  0.7219038597290681  0.37597070611681643  1.0000
  Cl  Cl2       1.0  0.1005731106056709  0.27809614032609337  0.6240292937869906  1.0000
  Cl  Cl3       1.0  0.5981867279588831  0.8238904455680776  0.1382465093799036  1.0000
  Cl  Cl4       1.0  0.40181327264178496  0.17610955418377208  0.8617534912311265  1.0000
