data_image0
_chemical_formula_structural       H18C10N18O4S2
_chemical_formula_sum              "H18 C10 N18 O4 S2"
_cell_length_a       4.368232079315183
_cell_length_b       10.43461298878075
_cell_length_c       12.130394022424289
_cell_angle_alpha    68.67409787749972
_cell_angle_beta     84.91629843403088
_cell_angle_gamma    89.38575126253413

_space_group_name_H-M_alt    "P 1"
_space_group_IT_number       1

loop_
  _space_group_symop_operation_xyz
  'x, y, z'

loop_
  _atom_site_type_symbol
  _atom_site_label
  _atom_site_symmetry_multiplicity
  _atom_site_fract_x
  _atom_site_fract_y
  _atom_site_fract_z
  _atom_site_occupancy
  H   H1        1.0  0.8716446115204042  0.3003319101062833  0.11129244238010941  1.0000
  H   H2        1.0  0.12835539030032603  0.6996680900245271  0.888707557415384  1.0000
  H   H3        1.0  0.5207346935890609  0.5010121588563822  0.8959989155600545  1.0000
  H   H4        1.0  0.47926530593324335  0.49898784127177565  0.10400108430979874  1.0000
  H   H5        1.0  0.3708663234061707  0.07322244152532206  0.8304950307046338  1.0000
  H   H6        1.0  0.6291336761161335  0.9267775586028357  0.16950496916521957  1.0000
  H   H7        1.0  0.5934262878748026  0.09806078813777713  0.34255992599145246  1.0000
  H   H8        1.0  0.40657371394592784  0.9019392119930334  0.6574400738040407  1.0000
  H   H9        1.0  0.5687641840625942  0.13264587823500631  0.47825268251731695  1.0000
  H   H10       1.0  0.4312358154597099  0.8673541218931515  0.5217473173525363  1.0000
  H   H11       1.0  0.9098426603019037  0.18390716291180714  0.37633132332051705  1.0000
  H   H12       1.0  0.09015734151882653  0.8160928372190033  0.6236686764749763  1.0000
  H   H13       1.0  0.535857697279454  0.5304498686393706  0.3528439722282548  1.0000
  H   H14       1.0  0.4641423022433168  0.4695501314874895  0.6471560284663643  1.0000
  H   H15       1.0  0.8926777015265549  0.43678806652956353  0.3680404114592931  1.0000
  H   H16       1.0  0.1073222979957493  0.5632119335985943  0.6319595884105601  1.0000
  H   H17       1.0  0.5776508640899715  0.3779784387892195  0.48189901331426677  1.0000
  H   H18       1.0  0.4223491354323327  0.6220215613389383  0.5181009865555866  1.0000
  C   C1        1.0  0.0709165770540782  0.21121302955555377  0.98197432869498  1.0000
  C   C2        1.0  0.9290834247671188  0.788786970573959  0.018025671925279055  1.0000
  C   C3        1.0  0.9429076594368002  0.2785346340872878  0.8688028045547096  1.0000
  C   C4        1.0  0.05709234008550383  0.72146536604087  0.13119719531514373  1.0000
  C   C5        1.0  0.033679738951989655  0.23461153457451886  0.7690220142801827  1.0000
  C   C6        1.0  0.9663202628687406  0.7653884655562915  0.23097798551531057  1.0000
  C   C7        1.0  0.6600437671295015  0.1690060336444751  0.38454072575177434  1.0000
  C   C8        1.0  0.3399562323928026  0.8309939664836827  0.615459274118079  1.0000
  C   C9        1.0  0.6422365611269931  0.42967111385167633  0.38658521831547754  1.0000
  C   C10       1.0  0.3577634383957779  0.5703288862751839  0.6134147823791416  1.0000
  N   N1        1.0  0.019818500765624143  0.23462065788682043  0.08489682067990247  1.0000
  N   N2        1.0  0.9801814987566799  0.7653793422413374  0.9151031791899507  1.0000
  N   N3        1.0  0.19431591845449264  0.15000904041120686  0.16496988728643502  1.0000
  N   N4        1.0  0.8056840810678115  0.8499909597169512  0.8350301125834182  1.0000
  N   N5        1.0  0.3480388163227253  0.0768487171423183  0.11196187792790575  1.0000
  N   N6        1.0  0.6519611831995789  0.9231512829858397  0.8880381219419475  1.0000
  N   N7        1.0  0.2775647230663303  0.11167496380506234  0.9992068966627271  1.0000
  N   N8        1.0  0.7224352764086159  0.88832503529403  0.0007931035295223942  1.0000
  N   N9        1.0  0.7507432710318565  0.3795425204318412  0.8444510946808279  1.0000
  N   N10       1.0  0.2492567307415158  0.6204574786699034  0.15554890543706143  1.0000
  N   N11       1.0  0.2397321394439113  0.13803419632351668  0.7660466320989715  1.0000
  N   N12       1.0  0.7602678600783929  0.8619658038046414  0.23395336777088166  1.0000
  N   N13       1.0  0.25918311015905665  0.12977852475950527  0.6577767583002855  1.0000
  N   N14       1.0  0.7408168893632475  0.8702214753686525  0.34222324156956774  1.0000
  N   N15       1.0  0.0692617993744019  0.21945183977541277  0.596114363536897  1.0000
  N   N16       1.0  0.9307382024467952  0.7805481603540999  0.40388563708336217  1.0000
  N   N17       1.0  0.9245671281271087  0.28632995585231286  0.6618599168930072  1.0000
  N   N18       1.0  0.07543287139519536  0.7136700442758449  0.3381400829768461  1.0000
  O   O1        1.0  0.6609283770702566  0.41912312443871913  0.9364991421879254  1.0000
  O   O2        1.0  0.33907162245204747  0.5808768756894387  0.0635008576819279  1.0000
  O   O3        1.0  0.6608642523224912  0.3857169877055099  0.18438905238441514  1.0000
  O   O4        1.0  0.33913574949823905  0.6142830124253005  0.8156109474110781  1.0000
  S   S1        1.0  0.4891651255068349  0.32998612722555554  0.31091861149502176  1.0000
  S   S2        1.0  0.5108348763138953  0.6700138729052549  0.6890813883004716  1.0000
