data_image0
_chemical_formula_structural       H34C32N10O4P6Cl6
_chemical_formula_sum              "H34 C32 N10 O4 P6 Cl6"
_cell_length_a       7.005270818687154
_cell_length_b       9.72559610924244
_cell_length_c       16.240362655376934
_cell_angle_alpha    78.97421231207656
_cell_angle_beta     85.75066135403956
_cell_angle_gamma    82.92656035610729

_space_group_name_H-M_alt    "P 1"
_space_group_IT_number       1

loop_
  _space_group_symop_operation_xyz
  'x, y, z'

loop_
  _atom_site_type_symbol
  _atom_site_label
  _atom_site_symmetry_multiplicity
  _atom_site_fract_x
  _atom_site_fract_y
  _atom_site_fract_z
  _atom_site_occupancy
  H   H1        1.0  0.5656876267071792  0.025020804596028845  0.39993126502636905  1.0000
  H   H2        1.0  0.4343123730742972  0.9749791951716942  0.6000687348525353  1.0000
  H   H3        1.0  0.6447766941691839  0.836086554981711  0.5254791437999771  1.0000
  H   H4        1.0  0.35522330561229243  0.163913444786012  0.4745208560789273  1.0000
  H   H5        1.0  0.9842753626946097  0.7266268404882702  0.5427563714191529  1.0000
  H   H6        1.0  0.01572463851375969  0.2733731592803263  0.4572436284623155  1.0000
  H   H7        1.0  0.24025897926719877  0.8025974715328715  0.43714573882351165  1.0000
  H   H8        1.0  0.7597410202545738  0.1974025290733426  0.5628542616854059  1.0000
  H   H9        1.0  0.3331428140989139  0.7974249623748149  0.28646869341104797  1.0000
  H   H10       1.0  0.6668571856825625  0.2025750373929082  0.7135313064678565  1.0000
  H   H11       1.0  0.5928555922937427  0.878326266336337  0.18291502942925852  1.0000
  H   H12       1.0  0.4071444087349644  0.12167373446778396  0.8170849704540551  1.0000
  H   H13       1.0  0.606956117859064  0.1361772749120373  0.13245139716379395  1.0000
  H   H14       1.0  0.3930438819224123  0.8638227248556857  0.8675486027151105  1.0000
  H   H15       1.0  0.3618284156335196  0.3110468696454065  0.18541370278519967  1.0000
  H   H16       1.0  0.6381715841479567  0.6889531301223165  0.8145862970937047  1.0000
  H   H17       1.0  0.8258717996801634  0.38011922267412107  0.019236891942203453  1.0000
  H   H18       1.0  0.17412820010131294  0.6198807770936019  0.980763107936701  1.0000
  H   H19       1.0  0.7613998056215274  0.5521866373669948  0.9610147194109568  1.0000
  H   H20       1.0  0.2386001941599489  0.4478133624007281  0.03898528046794755  1.0000
  H   H21       1.0  0.6515556417376267  0.37507020457823864  0.8901793167952734  1.0000
  H   H22       1.0  0.3484443580438497  0.6249297951894843  0.10982068308363108  1.0000
  H   H23       1.0  0.5237350146271477  0.30001621572571313  0.9843456042024016  1.0000
  H   H24       1.0  0.47626498497466657  0.6999837850775344  0.015654395678348074  1.0000
  H   H25       1.0  0.9607218914264862  0.9747750171305468  0.12611393125837977  1.0000
  H   H26       1.0  0.039278108354990016  0.02522498263717605  0.8738860686205246  1.0000
  H   H27       1.0  0.0663674171085264  0.1365796892469202  0.10410156923301368  1.0000
  H   H28       1.0  0.9336325826729501  0.8634203105208029  0.8958984306458908  1.0000
  H   H29       1.0  0.266590604624602  0.06283042538091241  0.9876034928338587  1.0000
  H   H30       1.0  0.7334093950768329  0.9371695741897772  0.012396507673213476  1.0000
  H   H31       1.0  0.292855003217012  0.923448741593313  0.07657549623640782  1.0000
  H   H32       1.0  0.7071449963848021  0.07655125920993455  0.9234245036443418  1.0000
  H   H33       1.0  0.7665259190214548  0.17231277453529484  0.041750526843966324  1.0000
  H   H34       1.0  0.23347408067998027  0.8276872250353946  0.958249473663106  1.0000
  C   C1        1.0  0.8593792413102642  0.01845351325949455  0.3518970336634211  1.0000
  C   C2        1.0  0.1406207583911709  0.9815464863111949  0.6481029668436512  1.0000
  C   C3        1.0  0.712581404639737  0.9764389167772295  0.4101568559249541  1.0000
  C   C4        1.0  0.2874185949620771  0.023561084026017972  0.5898431439557956  1.0000
  C   C5        1.0  0.7580429620229736  0.8708628528217282  0.4792776823809645  1.0000
  C   C6        1.0  0.24195703749879924  0.1291371477844858  0.520722318127953  1.0000
  C   C7        1.0  0.9476348281458739  0.8078716794999118  0.4884797573972265  1.0000
  C   C8        1.0  0.05236517163560251  0.19212832026781107  0.511520242481678  1.0000
  C   C9        1.0  0.09220913131053898  0.8506336426356573  0.42899725779295733  1.0000
  C   C10       1.0  0.9077908684709375  0.1493663571320659  0.571002742085947  1.0000
  C   C11       1.0  0.05118450792526769  0.9581046044285715  0.3594295567086897  1.0000
  C   C12       1.0  0.9488154918562086  0.041895395339151494  0.6405704431702147  1.0000
  C   C13       1.0  0.20294911695440518  0.006490716078806817  0.29652171594188753  1.0000
  C   C14       1.0  0.7970508842539642  0.9935092836897897  0.703478283939581  1.0000
  C   C15       1.0  0.34146282356131386  0.9097851176486855  0.2649379903422541  1.0000
  C   C16       1.0  0.6585371762201624  0.0902148821190374  0.7350620095366504  1.0000
  C   C17       1.0  0.4856669285216108  0.9552714466037703  0.20592332033970182  1.0000
  C   C18       1.0  0.5143330710001619  0.044728554002443716  0.7940766801692157  1.0000
  C   C19       1.0  0.4923244740526621  0.09940150374090423  0.17689782889980935  1.0000
  C   C20       1.0  0.5076755254691105  0.9005984968653098  0.8231021716091083  1.0000
  C   C21       1.0  0.3571244069222007  0.19821267697785597  0.2066739488758713  1.0000
  C   C22       1.0  0.6428755928592758  0.8017873227898672  0.7933260510030331  1.0000
  C   C23       1.0  0.21552687467989762  0.15074305967392704  0.26620350092259976  1.0000
  C   C24       1.0  0.7844731251015787  0.8492569400937959  0.7337964989563046  1.0000
  C   C25       1.0  0.7037323913664985  0.4584312361319819  0.9996280495788734  1.0000
  C   C26       1.0  0.2962676084149778  0.541568763635741  0.00037195030003104885  1.0000
  C   C27       1.0  0.5732093288475496  0.39851027675730283  0.9477372890992511  1.0000
  C   C28       1.0  0.42679067093392664  0.6014897230104203  0.05226271077965328  1.0000
  C   C29       1.0  0.02017180783213211  0.05371292571300296  0.07518662428660902  1.0000
  C   C30       1.0  0.9798281919493443  0.94628707405472  0.9248133755922955  1.0000
  C   C31       1.0  0.19090384427364585  0.9810898559185667  0.03045313658829446  1.0000
  C   C32       1.0  0.8090961569347235  0.018910143850029745  0.9695468632931741  1.0000
  N   N1        1.0  0.7529341761783528  0.351508650066214  0.3465245842400323  1.0000
  N   N2        1.0  0.2470658236031234  0.6484913497015092  0.6534754156388721  1.0000
  N   N3        1.0  0.5638074208139638  0.5500640677775236  0.227670267455098  1.0000
  N   N4        1.0  0.43619257896751246  0.4499359319901993  0.7723297324238064  1.0000
  N   N5        1.0  0.845072197259898  0.3526041481044137  0.17951250839241134  1.0000
  N   N6        1.0  0.15492780252157837  0.6473958516633093  0.820487491486493  1.0000
  N   N7        1.0  0.5928776171019489  0.4966135812580534  0.07404675232428272  1.0000
  N   N8        1.0  0.40712238402637924  0.5033864183135096  0.9259532481853536  1.0000
  N   N9        1.0  0.8788908885274789  0.11946117211518413  0.013329470384847377  1.0000
  N   N10       1.0  0.12110911107433515  0.8805388286880634  0.9866705294959023  1.0000
  O   O1        1.0  0.8119843641981502  0.1208414998665029  0.280682197186825  1.0000
  O   O2        1.0  0.18801563550328484  0.8791584997041865  0.7193178033202474  1.0000
  O   O3        1.0  0.08764862512922486  0.251916016625628  0.2995376455721965  1.0000
  O   O4        1.0  0.9123513758994822  0.7480839841784932  0.7004623543111173  1.0000
  P   P1        1.0  0.8665772002394692  0.2778394284079166  0.27473669130729594  1.0000
  P   P2        1.0  0.13342280096890027  0.7221605713606798  0.7252633085741726  1.0000
  P   P3        1.0  0.6068861672859142  0.4896353472679329  0.3234654569993103  1.0000
  P   P4        1.0  0.3931138324155208  0.5103646523027564  0.6765345435077621  1.0000
  P   P5        1.0  0.713584860432235  0.49934285228748204  0.15704156922145557  1.0000
  P   P6        1.0  0.2864151407761343  0.5006571474811145  0.842958430660013  1.0000
  Cl  Cl1       1.0  0.3502330208001443  0.46291421075748834  0.3854876092296288  1.0000
  Cl  Cl2       1.0  0.6497669789012906  0.5370857888132011  0.6145123912774435  1.0000
  Cl  Cl3       1.0  0.6955118812588132  0.640932423248106  0.3763204971899234  1.0000
  Cl  Cl4       1.0  0.30448811826295946  0.35906757735810807  0.6236795033189941  1.0000
  Cl  Cl5       1.0  0.8927511457018306  0.6551758003338846  0.1185577524933889  1.0000
  Cl  Cl6       1.0  0.10724885532687646  0.34482420047023654  0.8814422473899248  1.0000
