data_image0
_chemical_formula_structural       H48C64N8O4F16I4
_chemical_formula_sum              "H48 C64 N8 O4 F16 I4"
_cell_length_a       6.142621098628308
_cell_length_b       15.238031926735852
_cell_length_c       16.31572887947989
_cell_angle_alpha    98.07012671178785
_cell_angle_beta     92.91929819082581
_cell_angle_gamma    94.26846319698788

_space_group_name_H-M_alt    "P 1"
_space_group_IT_number       1

loop_
  _space_group_symop_operation_xyz
  'x, y, z'

loop_
  _atom_site_type_symbol
  _atom_site_label
  _atom_site_symmetry_multiplicity
  _atom_site_fract_x
  _atom_site_fract_y
  _atom_site_fract_z
  _atom_site_occupancy
  H   H1        1.0  0.6393750275324884  0.8941831558664098  0.27742636821795197  1.0000
  H   H2        1.0  0.36062497285221906  0.10581684468154513  0.7225736319331918  1.0000
  H   H3        1.0  0.5565307257358436  0.9788420034147968  0.16933213280876372  1.0000
  H   H4        1.0  0.4434692745172566  0.021157996473857563  0.8306678673340611  1.0000
  H   H5        1.0  0.3027448530835115  0.019434353197847837  0.06030950536628417  1.0000
  H   H6        1.0  0.6972551471695886  0.9805656466908064  0.9396904947765404  1.0000
  H   H7        1.0  0.9168201037691998  0.9497092563775454  0.04297018722405332  1.0000
  H   H8        1.0  0.08317989648390046  0.05029074351110888  0.9570298129187714  1.0000
  H   H9        1.0  0.7894064058928327  0.8420988968433547  0.13454820276066518  1.0000
  H   H10       1.0  0.2105935944918748  0.15790110370460025  0.8654517973904787  1.0000
  H   H11       1.0  0.15214511349424736  0.7897814049638994  0.29634269288012577  1.0000
  H   H12       1.0  0.8478548868904601  0.2102185955840556  0.703657307271018  1.0000
  H   H13       1.0  0.8704940687811102  0.11569220324380138  0.21716199109909817  1.0000
  H   H14       1.0  0.12950593160359725  0.8843077973041537  0.7828380090520456  1.0000
  H   H15       1.0  0.9465853859509851  0.03144033157692636  0.32602713624073193  1.0000
  H   H16       1.0  0.05341461267529364  0.968559668315663  0.6739728639049143  1.0000
  H   H17       1.0  0.19523865287443995  0.9901904468267188  0.4366378082054237  1.0000
  H   H18       1.0  0.8047613472713341  0.009809552974506986  0.5633621913172278  1.0000
  H   H19       1.0  0.7163070061471514  0.16473429398570233  0.36394726852866566  1.0000
  H   H20       1.0  0.2836929941059487  0.8352657059029519  0.636052731614159  1.0000
  H   H21       1.0  0.5819723283564403  0.05813234220772262  0.45544877259074296  1.0000
  H   H22       1.0  0.41802767026983845  0.9418676576848667  0.5445512275549033  1.0000
  H   H23       1.0  0.360857706892519  0.21747109989762445  0.19970181079249588  1.0000
  H   H24       1.0  0.6391422917337597  0.7825288999949649  0.8002981893531502  1.0000
  H   H25       1.0  0.9833226143465964  0.597815949869036  0.7846518069258237  1.0000
  H   H26       1.0  0.016677385799177633  0.40218404993219  0.21534819259682778  1.0000
  H   H27       1.0  0.24352611404265498  0.658978337974163  0.7956942149192714  1.0000
  H   H28       1.0  0.7564738862104451  0.34102166191449135  0.20430578522355333  1.0000
  H   H29       1.0  0.518366458467829  0.6185763690446211  0.7033732347659432  1.0000
  H   H30       1.0  0.481633541785271  0.3814236308440331  0.2966267653768816  1.0000
  H   H31       1.0  0.465697069546174  0.5261629216711419  0.6238379744038751  1.0000
  H   H32       1.0  0.5343029308385334  0.47383707887681314  0.3761620257472686  1.0000
  H   H33       1.0  0.03703131585345875  0.3790209586425144  0.7692064162398039  1.0000
  H   H34       1.0  0.9629686843996415  0.6209790412461398  0.23079358390302074  1.0000
  H   H35       1.0  0.23987345630285978  0.3463788564209143  0.700627404747304  1.0000
  H   H36       1.0  0.7601265438429142  0.6536211433803114  0.2993725947753474  1.0000
  H   H37       1.0  0.11654232652737195  0.4426426622965564  0.6088678354472054  1.0000
  H   H38       1.0  0.8834576720989068  0.5573573375960329  0.39113216469844087  1.0000
  H   H39       1.0  0.9114214533834144  0.47343046691345625  0.6766059185609726  1.0000
  H   H40       1.0  0.08857854689396695  0.5265695335470705  0.32339408096999794  1.0000
  H   H41       1.0  0.3698376647933356  0.5633183336001245  0.887415217372112  1.0000
  H   H42       1.0  0.6301623354597646  0.4366816662885299  0.11258478277071263  1.0000
  H   H43       1.0  0.11041321194942609  0.5017841109815437  0.8756193250476071  1.0000
  H   H44       1.0  0.889586788196348  0.49821588881968215  0.1243806744750445  1.0000
  H   H45       1.0  0.5936495890140047  0.4308906465374377  0.7149685740427597  1.0000
  H   H46       1.0  0.4063504112390956  0.5691093533512166  0.2850314261000651  1.0000
  H   H47       1.0  0.6458668780474655  0.5230033966928803  0.794863292746164  1.0000
  H   H48       1.0  0.35413312220563464  0.476996603195774  0.20513670739666073  1.0000
  C   C1        1.0  0.4648454357905892  0.7101929110544256  0.4221463359182562  1.0000
  C   C2        1.0  0.5351545644625111  0.28980708883422873  0.5778536642245686  1.0000
  C   C3        1.0  0.5396551658590801  0.7867402869360308  0.38906243727998263  1.0000
  C   C4        1.0  0.46034483441830115  0.21325971352449583  0.6109375622509879  1.0000
  C   C5        1.0  0.7472361167027909  0.8256375374133835  0.4212330550850895  1.0000
  C   C6        1.0  0.2527638836819165  0.17436246313457146  0.5787669450660542  1.0000
  C   C7        1.0  0.31786447909201476  0.8900179469381254  0.21506261034938126  1.0000
  C   C8        1.0  0.6821355212926926  0.10998205360982953  0.7849373898017625  1.0000
  C   C9        1.0  0.7997549133506053  0.7105938129871365  0.5083209859534974  1.0000
  C   C10       1.0  0.2002450869267759  0.2894061874733901  0.4916790135774731  1.0000
  C   C11       1.0  0.8731658749646525  0.7877189755513615  0.4779142641406817  1.0000
  C   C12       1.0  0.1268341251811215  0.2122810242498643  0.5220857353819697  1.0000
  C   C13       1.0  0.5916246312534804  0.6729259147854839  0.47893101134281163  1.0000
  C   C14       1.0  0.4083753689996198  0.32707408510317043  0.521068988800013  1.0000
  C   C15       1.0  0.46883918858204227  0.8674873534841495  0.2772777037871101  1.0000
  C   C16       1.0  0.5311608116953391  0.1325126469763771  0.7227222957438605  1.0000
  C   C17       1.0  0.38771867939542276  0.9499730974319117  0.16144849490078345  1.0000
  C   C18       1.0  0.6122813192308558  0.05002690246067759  0.8385515052448628  1.0000
  C   C19       1.0  0.09678097897721967  0.852112473867302  0.20561464011297564  1.0000
  C   C20       1.0  0.9032190212758804  0.14788752602135222  0.794385360029849  1.0000
  C   C21       1.0  0.245863826280569  0.9723215738768627  0.10041496275179912  1.0000
  C   C22       1.0  0.7541361723457097  0.02767842601572651  0.8995850373938471  1.0000
  C   C23       1.0  0.029698685183342073  0.933510278577006  0.09122993746620614  1.0000
  C   C24       1.0  0.9703013150697583  0.06648972131164844  0.9087700626766185  1.0000
  C   C25       1.0  0.9553248971649537  0.8738390243908102  0.14269146154482193  1.0000
  C   C26       1.0  0.044675103088146456  0.1261609754978441  0.8573085385980028  1.0000
  C   C27       1.0  0.9800020257551503  0.21950335348579203  0.10324121070852682  1.0000
  C   C28       1.0  0.01999797452223116  0.7804966469747345  0.8967587888224439  1.0000
  C   C29       1.0  0.7706129265298464  0.181933438136977  0.07170676593263473  1.0000
  C   C30       1.0  0.22938707361592764  0.818066561664249  0.9282932335900168  1.0000
  C   C31       1.0  0.7277707686211744  0.29384752418694493  0.9805941703578228  1.0000
  C   C32       1.0  0.27222923163192575  0.7061524757017094  0.019405829785001914  1.0000
  C   C33       1.0  0.18938542612586756  0.11931911685795883  0.28137849383953795  1.0000
  C   C34       1.0  0.8106145741272326  0.8806808830306955  0.7186215063032868  1.0000
  C   C35       1.0  0.6478899614230367  0.21926123881219706  0.013630338998421301  1.0000
  C   C36       1.0  0.3521100387227374  0.780738760989029  0.9863696605242301  1.0000
  C   C37       1.0  0.06087973883750751  0.29360753438319676  0.06769938550941562  1.0000
  C   C38       1.0  0.9391202614155926  0.7063924655054575  0.932300614633409  1.0000
  C   C39       1.0  0.041738124741850846  0.14162565146997588  0.21793293051529058  1.0000
  C   C40       1.0  0.9582618756428567  0.8583743490779792  0.7820670696358533  1.0000
  C   C41       1.0  0.1157723449273657  0.0597913445430741  0.3348251585259772  1.0000
  C   C42       1.0  0.8842276554573418  0.9402086560048809  0.6651748416251666  1.0000
  C   C43       1.0  0.411099429378863  0.1563554294561475  0.29178736128548277  1.0000
  C   C44       1.0  0.5889005708742372  0.8436445704325068  0.708212638857342  1.0000
  C   C45       1.0  0.9386299841720541  0.3294725946167886  0.008611512425621385  1.0000
  C   C46       1.0  0.061370015973719966  0.6705274051844372  0.9913884870970301  1.0000
  C   C47       1.0  0.25459358535061455  0.036969415035978385  0.3966151061107882  1.0000
  C   C48       1.0  0.7454064149024856  0.9630305848526759  0.6033848940320364  1.0000
  C   C49       1.0  0.5495533894012966  0.1339347690598169  0.35523350653954977  1.0000
  C   C50       1.0  0.4504466108760847  0.8660652314007097  0.6447664929914209  1.0000
  C   C51       1.0  0.47150028356667867  0.0747629239741972  0.40661339492547366  1.0000
  C   C52       1.0  0.5284997165790953  0.9252370758270286  0.5933866045971778  1.0000
  C   C53       1.0  0.15997836875958463  0.5919498343865909  0.7817145429984385  1.0000
  C   C54       1.0  0.8400216298666942  0.4080501655059984  0.21828545714720782  1.0000
  C   C55       1.0  0.43797895248641416  0.5510286595982152  0.688452449991836  1.0000
  C   C56       1.0  0.5620210477666859  0.44897134029043906  0.3115475501509888  1.0000
  C   C57       1.0  0.16935848551123622  0.4041870257201795  0.7338309120171407  1.0000
  C   C58       1.0  0.8306415147418639  0.5958129741684748  0.2661690881256839  1.0000
  C   C59       1.0  0.08724822600801597  0.46686975372967077  0.6736098492612959  1.0000
  C   C60       1.0  0.9127517742450842  0.5331302461589834  0.32639015088152884  1.0000
  C   C61       1.0  0.24338560765652056  0.5289292486541717  0.8417150105704387  1.0000
  C   C62       1.0  0.7566143925965795  0.4710707512344825  0.15828498957238593  1.0000
  C   C63       1.0  0.5216011898094474  0.4881818674542433  0.7484140183033701  1.0000
  C   C64       1.0  0.4783988088168312  0.5118181324383461  0.2515859818422761  1.0000
  N   N1        1.0  0.40339770340059944  0.8148656019642638  0.32950936782045537  1.0000
  N   N2        1.0  0.5966022968525008  0.18513439792439051  0.6704906323223694  1.0000
  N   N3        1.0  0.11147505321871294  0.1926850140721241  0.1650103241220145  1.0000
  N   N4        1.0  0.8885249470343872  0.8073149858165303  0.8349896760208102  1.0000
  N   N5        1.0  0.20073304586213486  0.5565157364866188  0.6955277989711532  1.0000
  N   N6        1.0  0.7992669543909652  0.44348426340203556  0.3044722011716714  1.0000
  N   N7        1.0  0.33929087947518977  0.45354505646276677  0.7935499090056671  1.0000
  N   N8        1.0  0.6607091207779104  0.5464549434258876  0.20645009113715762  1.0000
  O   O1        1.0  0.02207499924774658  0.7953559390696774  0.2556429501663919  1.0000
  O   O2        1.0  0.9779249992712061  0.20464406073548352  0.7443570493590811  1.0000
  O   O3        1.0  0.4888221081142391  0.21302441978807074  0.241858802713627  1.0000
  O   O4        1.0  0.5111778904047134  0.7869755800170901  0.758141196811846  1.0000
  F   F1        1.0  0.26488428021524985  0.6697129556295267  0.39482461667754826  1.0000
  F   F2        1.0  0.7351157200621316  0.3302870448309999  0.6051753828534224  1.0000
  F   F3        1.0  0.8263268077462289  0.9038830614500928  0.3989222763887177  1.0000
  F   F4        1.0  0.17367319250687122  0.0961169384385615  0.6010777237541071  1.0000
  F   F5        1.0  0.07415716427047296  0.8287236958755567  0.5031419788339566  1.0000
  F   F6        1.0  0.9258428359826273  0.17127630401309757  0.4968580213088681  1.0000
  F   F7        1.0  0.5098271166641412  0.596173948179872  0.5032681727421302  1.0000
  F   F8        1.0  0.49017288198641873  0.4038260522845897  0.49673182679166195  1.0000
  F   F9        1.0  0.6851242906942036  0.10592661936616232  0.09663013691314815  1.0000
  F   F10       1.0  0.3148757079320751  0.8940733805264269  0.903369863232498  1.0000
  F   F11       1.0  0.2604183995262003  0.33427246289102147  0.09592539073365697  1.0000
  F   F12       1.0  0.7395816006195738  0.6657275369102044  0.9040746087889946  1.0000
  F   F13       1.0  0.4440994303770811  0.18023257249566474  0.9898723885476933  1.0000
  F   F14       1.0  0.555900569768693  0.8197674273055612  0.010127610974958174  1.0000
  F   F15       1.0  0.02630333836209587  0.40332428763755707  0.9809907449022971  1.0000
  F   F16       1.0  0.9736966602641829  0.5966757122550324  0.019009255243349118  1.0000
  I   I1        1.0  0.9950178306242616  0.6491362115369702  0.5927672333742697  1.0000
  I   I2        1.0  0.004982169628838779  0.3508637883516842  0.4072327667685551  1.0000
  I   I3        1.0  0.5392859652996308  0.3570900366242235  0.8958743253358358  1.0000
  I   I4        1.0  0.4607140348461432  0.6429099631770023  0.10412567418681579  1.0000
