data_image0
_chemical_formula_structural       H24C38N4O2F8I2
_chemical_formula_sum              "H24 C38 N4 O2 F8 I2"
_cell_length_a       6.411726446739804
_cell_length_b       7.639974024500363
_cell_length_c       18.611102277552426
_cell_angle_alpha    90.94084209427602
_cell_angle_beta     84.54428682031073
_cell_angle_gamma    67.50236225007401

_space_group_name_H-M_alt    "P 1"
_space_group_IT_number       1

loop_
  _space_group_symop_operation_xyz
  'x, y, z'

loop_
  _atom_site_type_symbol
  _atom_site_label
  _atom_site_symmetry_multiplicity
  _atom_site_fract_x
  _atom_site_fract_y
  _atom_site_fract_z
  _atom_site_occupancy
  H   H1        1.0  0.0654524069743233  0.07264535065334313  0.9133653958593221  1.0000
  H   H2        1.0  0.9345475934918768  0.9273546506196404  0.08663460412694919  1.0000
  H   H3        1.0  0.004501083675712015  0.790422780113891  0.8441062858567616  1.0000
  H   H4        1.0  0.9954989174371928  0.209577219741588  0.15589371412380557  1.0000
  H   H5        1.0  0.28462633414067656  0.8369663711514651  0.986632127902154  1.0000
  H   H6        1.0  0.7153736647663277  0.1630336301222479  0.01336787208136973  1.0000
  H   H7        1.0  0.6536094131851293  0.6110839921567026  0.02014751615235224  1.0000
  H   H8        1.0  0.34639058618111523  0.3889160077660272  0.9798524843660811  1.0000
  H   H9        1.0  0.014853495713346066  0.5921670676857382  0.948831017264639  1.0000
  H   H10       1.0  0.9851465038403628  0.40783293217046995  0.051168982713180745  1.0000
  H   H11       1.0  0.4648624466426365  0.11908506952825326  0.7977014779044693  1.0000
  H   H12       1.0  0.5351375529110721  0.880914930327955  0.20229852207335053  1.0000
  H   H13       1.0  0.3284347196755529  0.04516829355354881  0.5505524560119459  1.0000
  H   H14       1.0  0.6715652798781558  0.9548317063026595  0.44944754396587394  1.0000
  H   H15       1.0  0.7669730778264894  0.04447704994288931  0.6797247715474211  1.0000
  H   H16       1.0  0.2330269217272195  0.9555229499133189  0.3202752284303987  1.0000
  H   H17       1.0  0.08712710957548735  0.2931607313022552  0.4750035721173316  1.0000
  H   H18       1.0  0.9128728899782216  0.706839268553953  0.5249964278604882  1.0000
  H   H19       1.0  0.5030491340399934  0.2956891534482192  0.611470324333417  1.0000
  H   H20       1.0  0.49695086551371537  0.704310846407989  0.3885296756444028  1.0000
  H   H21       1.0  0.6483551493648394  0.6107712841240484  0.513440148072621  1.0000
  H   H22       1.0  0.35164484954216474  0.3892287171496645  0.4865598519109029  1.0000
  H   H23       1.0  0.6955348011594202  0.45163112267106625  0.4385283257061983  1.0000
  H   H24       1.0  0.30446519839428865  0.5483688771851419  0.5614716742716214  1.0000
  C   C1        1.0  0.011313216272817289  0.3110122351124555  0.8027551287888263  1.0000
  C   C2        1.0  0.9886867832808914  0.6889877647437528  0.19724487118899353  1.0000
  C   C3        1.0  0.6369321285693874  0.5816167456006252  0.7393695104862591  1.0000
  C   C4        1.0  0.3630678709843213  0.41838325425558315  0.2606304894915607  1.0000
  C   C5        1.0  0.041348836654606376  0.40020639359034194  0.7390635323058611  1.0000
  C   C6        1.0  0.9586511644582986  0.5997936062651369  0.26093646767470596  1.0000
  C   C7        1.0  0.7848782368640451  0.36513048179993834  0.8336958315686281  1.0000
  C   C8        1.0  0.21512176268966365  0.6348695180562699  0.1663041684091917  1.0000
  C   C9        1.0  0.8605461496450029  0.5319675171072145  0.7088818403729128  1.0000
  C   C10       1.0  0.13945385146790193  0.46803248274826453  0.2911181596076543  1.0000
  C   C11       1.0  0.6044492163769897  0.4946528050579607  0.8022945556872415  1.0000
  C   C12       1.0  0.39555078253001447  0.5053471962157522  0.19770544429628242  1.0000
  C   C13       1.0  0.4331509328130229  0.9424341127300426  0.8976795175587134  1.0000
  C   C14       1.0  0.5668490667406859  0.057565887126165616  0.10232048241910653  1.0000
  C   C15       1.0  0.6394120731765429  0.9292672098434465  0.8567780975301146  1.0000
  C   C16       1.0  0.36058792637716586  0.07073279001276192  0.14322190244770522  1.0000
  C   C17       1.0  0.21643679602593272  0.07304282408127491  0.880636832570601  1.0000
  C   C18       1.0  0.7835632035277762  0.9269571757749332  0.11936316740721886  1.0000
  C   C19       1.0  0.8478628113986418  0.8020624651098089  0.8761517175167475  1.0000
  C   C20       1.0  0.15213718815506677  0.19793753474639927  0.12384828246107243  1.0000
  C   C21       1.0  0.44353243596213243  0.8249836552866366  0.9559228135173711  1.0000
  C   C22       1.0  0.5564675629448717  0.17501634598707627  0.04407718646615289  1.0000
  C   C23       1.0  0.6497008798851313  0.6994765443715614  0.9746180049976251  1.0000
  C   C24       1.0  0.350299120581069  0.300523456901422  0.025381994988646087  1.0000
  C   C25       1.0  0.8512968811627127  0.6899071971150548  0.934532771474068  1.0000
  C   C26       1.0  0.14870311995019198  0.31009280274042417  0.06546722850649916  1.0000
  C   C27       1.0  0.7718587549268814  0.320947672640476  0.537721321427481  1.0000
  C   C28       1.0  0.22814124462682753  0.6790523272157323  0.4622786785503389  1.0000
  C   C29       1.0  0.1434321492036779  0.10495689273344978  0.5620152631868639  1.0000
  C   C30       1.0  0.856567851909227  0.8950431071220291  0.43798473679370326  1.0000
  C   C31       1.0  0.8314801753631819  0.1035660007347113  0.633911018566613  1.0000
  C   C32       1.0  0.16851982574972288  0.8964339991207676  0.3660889814139542  1.0000
  C   C33       1.0  0.008589819904350673  0.24455424070286955  0.5206389916037559  1.0000
  C   C34       1.0  0.9914101812085544  0.7554457591526094  0.47936100837681117  1.0000
  C   C35       1.0  0.6844442344782603  0.24484335561750936  0.5952952035238528  1.0000
  C   C36       1.0  0.3155557650754484  0.7551566442386989  0.404704796453967  1.0000
  C   C37       1.0  0.6262232039651413  0.4810241306688799  0.49581264626180943  1.0000
  C   C38       1.0  0.3737767955885673  0.5189758691873284  0.5041873537160103  1.0000
  N   N1        1.0  0.20587014389398042  0.18359972219134235  0.8271596889261879  1.0000
  N   N2        1.0  0.7941298572189244  0.8164002776641367  0.17284031105437922  1.0000
  N   N3        1.0  0.05773220614350724  0.03557346634405198  0.618106006819041  1.0000
  N   N4        1.0  0.9422677934102014  0.9644265335121562  0.38189399315877876  1.0000
  O   O1        1.0  0.6353161218880552  0.036984349841532205  0.8002467065771748  1.0000
  O   O2        1.0  0.36468387766565347  0.963015650014676  0.19975329340064496  1.0000
  F   F1        1.0  0.25492167103437174  0.35323574479975073  0.7061670712480647  1.0000
  F   F2        1.0  0.7450783294318285  0.6467642564732329  0.29383292873820654  1.0000
  F   F3        1.0  0.7392066624891572  0.2929153582993676  0.8965648735039935  1.0000
  F   F4        1.0  0.26079333862374765  0.7070846415561112  0.10343512647657364  1.0000
  F   F5        1.0  0.9060465539171181  0.611682150167733  0.647624423473881  1.0000
  F   F6        1.0  0.09395344563659058  0.3883178496884754  0.35237557650393875  1.0000
  F   F7        1.0  0.391555797299054  0.5361228989938792  0.8354397967807902  1.0000
  F   F8        1.0  0.6084442020671906  0.46387710092885054  0.1645602037376431  1.0000
  I   I1        1.0  0.36523554644335454  0.7816070572978352  0.6901090318221986  1.0000
  I   I2        1.0  0.634764453110354  0.21839294255837327  0.3098909681556212  1.0000
