data_image0
_chemical_formula_structural       H22C38N2O4Cl20
_chemical_formula_sum              "H22 C38 N2 O4 Cl20"
_cell_length_a       9.299235195140687
_cell_length_b       11.518436386563211
_cell_length_c       12.2858070921658
_cell_angle_alpha    94.60792522883555
_cell_angle_beta     104.12083775105879
_cell_angle_gamma    107.06779246782294

_space_group_name_H-M_alt    "P 1"
_space_group_IT_number       1

loop_
  _space_group_symop_operation_xyz
  'x, y, z'

loop_
  _atom_site_type_symbol
  _atom_site_label
  _atom_site_symmetry_multiplicity
  _atom_site_fract_x
  _atom_site_fract_y
  _atom_site_fract_z
  _atom_site_occupancy
  H   H1        1.0  0.3948201178330284  0.9288263527039697  0.22855968073930213  1.0000
  H   H2        1.0  0.6051798818503439  0.07117364680914995  0.7714403187050374  1.0000
  H   H3        1.0  0.5569992768119577  0.8480746328354436  0.3513151151562238  1.0000
  H   H4        1.0  0.44300072353006187  0.1519253677351738  0.6486848851406746  1.0000
  H   H5        1.0  0.1624345365800776  0.16833918480324447  0.08206326606200856  1.0000
  H   H6        1.0  0.837565463761942  0.8316608157673729  0.9179367342348899  1.0000
  H   H7        1.0  0.31912971872299073  0.33182038755441656  0.24754543787747582  1.0000
  H   H8        1.0  0.680870281619029  0.6681796130162009  0.7524545624194227  1.0000
  H   H9        1.0  0.5528296823359309  0.07940809342550913  0.3838639883601059  1.0000
  H   H10       1.0  0.4471703173474415  0.9205919060876107  0.6161360110842337  1.0000
  H   H11       1.0  0.261634830817649  0.897058100295973  0.012999316015947221  1.0000
  H   H12       1.0  0.7383651688657233  0.10294189921714679  0.9870006834283923  1.0000
  H   H13       1.0  0.10620740715068189  0.9600375396162057  0.9810693469744131  1.0000
  H   H14       1.0  0.8937925925326904  0.03996245989691419  0.018930652469926514  1.0000
  H   H15       1.0  0.10972944536874109  0.8543335463617147  0.0796549019281303  1.0000
  H   H16       1.0  0.8902705543146312  0.14566645315140514  0.9203450975162092  1.0000
  H   H17       1.0  0.587593762269317  0.28292468148305056  0.5059031958312152  1.0000
  H   H18       1.0  0.41240623774254104  0.7170753181790881  0.4940968044639358  1.0000
  H   H19       1.0  0.4997187897776055  0.3893160429385307  0.4445210331408766  1.0000
  H   H20       1.0  0.5002812102359283  0.6106839574830678  0.5554789663052104  1.0000
  H   H21       1.0  0.6667363956148071  0.37061116236748337  0.41006150784743517  1.0000
  H   H22       1.0  0.3332636043987267  0.6293888380541152  0.5899384915986519  1.0000
  C   C1        1.0  0.3501799688161018  0.7027445641061305  0.16909043351541161  1.0000
  C   C2        1.0  0.649820031197432  0.2972554363154681  0.8309095659306754  1.0000
  C   C3        1.0  0.3953183409101136  0.6957770414524775  0.06666578975492624  1.0000
  C   C4        1.0  0.6046816591017445  0.304222958209661  0.9333342105402247  1.0000
  C   C5        1.0  0.3363568276461545  0.5883559737782441  0.9854580336068945  1.0000
  C   C6        1.0  0.6636431723657037  0.41164402588389465  0.014541966688256318  1.0000
  C   C7        1.0  0.22656126757809528  0.48284666235547996  0.0021125268566019938  1.0000
  C   C8        1.0  0.7734387324354386  0.5171533380661186  0.9978874725894851  1.0000
  C   C9        1.0  0.1756430000227035  0.48773358510657533  0.10053974527793347  1.0000
  C   C10       1.0  0.8243569999891546  0.5122664145555632  0.8994602550172175  1.0000
  C   C11       1.0  0.2372187755947063  0.5946423895730535  0.18245777094268786  1.0000
  C   C12       1.0  0.7627812244171518  0.40535761008908516  0.8175422293524629  1.0000
  C   C13       1.0  0.7510904210594125  0.8873785172596431  0.483928184553803  1.0000
  C   C14       1.0  0.24890957895244567  0.11262148240249552  0.516071815741348  1.0000
  C   C15       1.0  0.8529046468373374  0.9770237223596893  0.5780130389385495  1.0000
  C   C16       1.0  0.14709535317619649  0.02297627806190932  0.4219869605075376  1.0000
  C   C17       1.0  0.9798415592792697  0.9548715191552843  0.6513539125844772  1.0000
  C   C18       1.0  0.020158440732588448  0.045128480506854175  0.34864608771067385  1.0000
  C   C19       1.0  0.009438158940825269  0.8431991186679398  0.6316694140550247  1.0000
  C   C20       1.0  0.9905618410727086  0.1568008817536589  0.36833058539106234  1.0000
  C   C21       1.0  0.9105113357182599  0.7544106730952794  0.5371900622087031  1.0000
  C   C22       1.0  0.08948866396511236  0.24558932641784031  0.4628099372356364  1.0000
  C   C23       1.0  0.7825448709404504  0.776175472543223  0.46438334424648253  1.0000
  C   C24       1.0  0.21745512874292186  0.22382452696989671  0.535616655197857  1.0000
  C   C25       1.0  0.27194025335484073  0.03676568351766351  0.1437900046305037  1.0000
  C   C26       1.0  0.7280597466570173  0.9632343161444752  0.8562099956646472  1.0000
  C   C27       1.0  0.24922994781697744  0.1510458950170687  0.15015489028927864  1.0000
  C   C28       1.0  0.7507700521948807  0.84895410464507  0.8498451100058723  1.0000
  C   C29       1.0  0.3386935457244775  0.24295713530191476  0.24281979795305655  1.0000
  C   C30       1.0  0.6613064542873806  0.7570428643602238  0.7571802023420944  1.0000
  C   C31       1.0  0.45346309252457023  0.22292723317959623  0.3298788956781312  1.0000
  C   C32       1.0  0.5465369074872878  0.7770727664825424  0.6701211046170197  1.0000
  C   C33       1.0  0.47047420646077787  0.10677362635313377  0.3201253403016319  1.0000
  C   C34       1.0  0.5295257935510803  0.8932263733090048  0.679874659993519  1.0000
  C   C35       1.0  0.18214812777885137  0.9316105854206688  0.04921458230493287  1.0000
  C   C36       1.0  0.8178518722330068  0.0683894142414699  0.950785417990218  1.0000
  C   C37       1.0  0.5564587141150822  0.3212520084275  0.4280727569114664  1.0000
  C   C38       1.0  0.4435412855682901  0.6787479910856199  0.5719272425328731  1.0000
  N   N1        1.0  0.38197213256977997  0.01940563242086969  0.22970883591294386  1.0000
  N   N2        1.0  0.6180278674420783  0.980594367241269  0.7702911643822071  1.0000
  O   O1        1.0  0.4066599563812995  0.8017457239947597  0.24599972290201066  1.0000
  O   O2        1.0  0.5933400439607203  0.19825427657585787  0.7540002773948878  1.0000
  O   O3        1.0  0.6307973574666081  0.9134513795526147  0.41912763673491055  1.0000
  O   O4        1.0  0.3692026428754115  0.08654862101800288  0.5808723635619879  1.0000
  Cl  Cl1       1.0  0.5264074778055485  0.8267153553642348  0.04529827106481579  1.0000
  Cl  Cl2       1.0  0.4735925225364711  0.17328464520638262  0.9547017292320826  1.0000
  Cl  Cl3       1.0  0.396164938451638  0.5855807675105944  0.8638566240919701  1.0000
  Cl  Cl4       1.0  0.6038350615602202  0.4144192321515442  0.13614337620318084  1.0000
  Cl  Cl5       1.0  0.15461172775201787  0.35112356730050454  0.9028103744218152  1.0000
  Cl  Cl6       1.0  0.8453882725900018  0.6488764332701128  0.0971896258750832  1.0000
  Cl  Cl7       1.0  0.03495446820887538  0.3624776739192021  0.12076909021747893  1.0000
  Cl  Cl8       1.0  0.9650455314744969  0.6375223255939176  0.8792309092268605  1.0000
  Cl  Cl9       1.0  0.1756767198083019  0.598846758280122  0.3030797329359426  1.0000
  Cl  Cl10      1.0  0.8243232805337176  0.4011532422904953  0.6969202673609558  1.0000
  Cl  Cl11      1.0  0.8168386391820464  0.11330190886452819  0.6010275727674471  1.0000
  Cl  Cl12      1.0  0.18316136082981166  0.8866980907976103  0.39897242752770384  1.0000
  Cl  Cl13      1.0  0.10161965748227969  0.06517858571767579  0.7648374444994945  1.0000
  Cl  Cl14      1.0  0.89838034285974  0.9348214148529418  0.23516255579740394  1.0000
  Cl  Cl15      1.0  0.16625551241766925  0.8167751513930512  0.7201640249283953  1.0000
  Cl  Cl16      1.0  0.8337444875941888  0.1832248482690874  0.2798359753667556  1.0000
  Cl  Cl17      1.0  0.9479604822131433  0.6202625261080195  0.5079155038703788  1.0000
  Cl  Cl18      1.0  0.05203951779871491  0.37973747355411913  0.4920844964247723  1.0000
  Cl  Cl19      1.0  0.6625676968890389  0.6685081148322098  0.3482687145983316  1.0000
  Cl  Cl20      1.0  0.3374323031244949  0.33149188558938864  0.6517312848477554  1.0000
