data_image0
_chemical_formula_structural       H10C10N2F4I2
_chemical_formula_sum              "H10 C10 N2 F4 I2"
_cell_length_a       5.232020165117344
_cell_length_b       6.08696168138024
_cell_length_c       10.171362595647755
_cell_angle_alpha    91.29697507819576
_cell_angle_beta     96.731526850846
_cell_angle_gamma    99.25589421857391

_space_group_name_H-M_alt    "P 1"
_space_group_IT_number       1

loop_
  _space_group_symop_operation_xyz
  'x, y, z'

loop_
  _atom_site_type_symbol
  _atom_site_label
  _atom_site_symmetry_multiplicity
  _atom_site_fract_x
  _atom_site_fract_y
  _atom_site_fract_z
  _atom_site_occupancy
  H   H1        1.0  0.706106481958268  0.15077356425607397  0.4353968244255402  1.0000
  H   H2        1.0  0.29389351783027606  0.8492264360469959  0.5646031757010234  1.0000
  H   H3        1.0  0.6392554185781218  0.37454019474908723  0.5345114236007674  1.0000
  H   H4        1.0  0.36074458096888906  0.6254598054894857  0.4654885755349394  1.0000
  H   H5        1.0  0.8276738820049937  0.7680614751392516  0.47672120129212414  1.0000
  H   H6        1.0  0.17232611778355028  0.23193852516381813  0.5232787988344394  1.0000
  H   H7        1.0  0.017894507990532584  0.7961626327493133  0.3417819898559461  1.0000
  H   H8        1.0  0.9821054917980115  0.2038373675537566  0.6582180102706175  1.0000
  H   H9        1.0  0.6926110661364989  0.4726366071931261  0.3064200218202587  1.0000
  H   H10       1.0  0.3073889336520451  0.5273633931099436  0.6935799783063049  1.0000
  C   C1        1.0  0.35923980548658285  0.1103283944045818  0.08483449295287156  1.0000
  C   C2        1.0  0.6407601943019611  0.8896716058984879  0.915165507173692  1.0000
  C   C3        1.0  0.38353970740815096  0.17683982485985353  0.9562616035170894  1.0000
  C   C4        1.0  0.6164602918300506  0.8231601737139496  0.04373839561502983  1.0000
  C   C5        1.0  0.4788719306164452  0.9315211774115928  0.1267628092825473  1.0000
  C   C6        1.0  0.5211280691720988  0.06847882289147691  0.8732371908440163  1.0000
  C   C7        1.0  0.7877897174363377  0.31713968472433995  0.4792988725693184  1.0000
  C   C8        1.0  0.21221028204339681  0.6828603139139598  0.5207011275536575  1.0000
  C   C9        1.0  0.9687241771181261  0.6924261506903955  0.4247981591062147  1.0000
  C   C10       1.0  0.03127582236160847  0.3075738479479045  0.5752018410167613  1.0000
  N   N1        1.0  0.8541946797298461  0.46666838034143476  0.37258852079431015  1.0000
  N   N2        1.0  0.14580532005869787  0.5333316199616349  0.6274114793322534  1.0000
  F   F1        1.0  0.2670253899500219  0.3482129541629526  0.9089016310791905  1.0000
  F   F2        1.0  0.7329746117499432  0.6517870461430693  0.09109836904547688  1.0000
  F   F3        1.0  0.46794210840472206  0.8619646940069543  0.25299171198899295  1.0000
  F   F4        1.0  0.5320578932952432  0.13803530629906766  0.7470082881356744  1.0000
  I   I1        1.0  0.1460027904831494  0.2759855414714305  0.21222620756889574  1.0000
  I   I2        1.0  0.8539972093053946  0.7240144588316392  0.7877737925576678  1.0000
