data_image0
_chemical_formula_structural       H10C10N2F4Br2
_chemical_formula_sum              "H10 C10 N2 F4 Br2"
_cell_length_a       5.091285879810114
_cell_length_b       5.915907906454609
_cell_length_c       10.168064572022017
_cell_angle_alpha    94.09528526039287
_cell_angle_beta     95.32918030129588
_cell_angle_gamma    98.29595683824672

_space_group_name_H-M_alt    "P 1"
_space_group_IT_number       1

loop_
  _space_group_symop_operation_xyz
  'x, y, z'

loop_
  _atom_site_type_symbol
  _atom_site_label
  _atom_site_symmetry_multiplicity
  _atom_site_fract_x
  _atom_site_fract_y
  _atom_site_fract_z
  _atom_site_occupancy
  H   H1        1.0  0.9873203804669215  0.6967019811923589  0.6513359804009574  1.0000
  H   H2        1.0  0.012679618540713028  0.30329801879418905  0.3486640196131246  1.0000
  H   H3        1.0  0.17417681866642026  0.7225641716590626  0.5119105295532617  1.0000
  H   H4        1.0  0.8258231803412142  0.27743582832748553  0.4880894704608203  1.0000
  H   H5        1.0  0.3638608138474204  0.1180941371177101  0.45930714179251547  1.0000
  H   H6        1.0  0.6361391851602141  0.881905862868838  0.5406928582215664  1.0000
  H   H7        1.0  0.3065707134051467  0.3558053867134557  0.565003934293646  1.0000
  H   H8        1.0  0.693429287563803  0.6441946132635169  0.43499606571420435  1.0000
  H   H9        1.0  0.31825834592980295  0.03086418486551739  0.6891822569167246  1.0000
  H   H10       1.0  0.6817416550391467  0.969135815111455  0.3108177430911258  1.0000
  C   C1        1.0  0.3488149403274767  0.6114153229504272  0.08741564077179247  1.0000
  C   C2        1.0  0.651185060641473  0.38858467702654526  0.9125843592360579  1.0000
  C   C3        1.0  0.37584609220320353  0.680822395322059  0.9606746811848503  1.0000
  C   C4        1.0  0.624153908765746  0.3191776046549134  0.03932531882300005  1.0000
  C   C5        1.0  0.47505093231652296  0.4287233073888585  0.12484684650087216  1.0000
  C   C6        1.0  0.5249490666911115  0.5712766925976895  0.8751531535132097  1.0000
  C   C7        1.0  0.034234593835880185  0.8034390080932178  0.5703316472635077  1.0000
  C   C8        1.0  0.9657654071330691  0.19656099188375464  0.4296683527443427  1.0000
  C   C9        1.0  0.2178421688068764  0.18455589695292635  0.52009178563544  1.0000
  C   C10       1.0  0.7821578302007581  0.8154441030336217  0.47990821437864184  1.0000
  N   N1        1.0  0.15191406648791786  0.035818605109708  0.6256196725628955  1.0000
  N   N2        1.0  0.8480859344810318  0.9641813948672645  0.37438032744495486  1.0000
  F   F1        1.0  0.2541876917743989  0.8552796018020946  0.9178495637037472  1.0000
  F   F2        1.0  0.7458123072332355  0.14472039818445323  0.08215043631033483  1.0000
  F   F3        1.0  0.4584992445651414  0.3562099904398573  0.2479872891045213  1.0000
  F   F4        1.0  0.5415007564038081  0.6437900095371152  0.752012710903329  1.0000
  Br  Br1       1.0  0.14863963725458448  0.7647597852462097  0.20759225571531476  1.0000
  Br  Br2       1.0  0.85136036175305  0.23524021474033843  0.792407744298767  1.0000
