data_image0
_chemical_formula_structural       H8C10O2F4I2
_chemical_formula_sum              "H8 C10 O2 F4 I2"
_cell_length_a       4.344358356657585
_cell_length_b       6.468664560673485
_cell_length_c       11.990649183047928
_cell_angle_alpha    82.15812598090164
_cell_angle_beta     88.57804923006195
_cell_angle_gamma    81.03064332739203

_space_group_name_H-M_alt    "P 1"
_space_group_IT_number       1

loop_
  _space_group_symop_operation_xyz
  'x, y, z'

loop_
  _atom_site_type_symbol
  _atom_site_label
  _atom_site_symmetry_multiplicity
  _atom_site_fract_x
  _atom_site_fract_y
  _atom_site_fract_z
  _atom_site_occupancy
  H   H1        1.0  0.4403912424010911  0.6416169559448962  0.30406973290631917  1.0000
  H   H2        1.0  0.5596087579432515  0.35838304425028844  0.6959302673110717  1.0000
  H   H3        1.0  0.7898071825732991  0.5075652954568473  0.3733429673899537  1.0000
  H   H4        1.0  0.21019281779126603  0.49243470495279046  0.6266570319855888  1.0000
  H   H5        1.0  0.7463411630961639  0.2148371567233068  0.5192796312069654  1.0000
  H   H6        1.0  0.2536588372684011  0.7851628436863309  0.4807203681685771  1.0000
  H   H7        1.0  0.36449764415907465  0.1522405940216735  0.5525170283837619  1.0000
  H   H8        1.0  0.6355023561852678  0.8477594061735112  0.44748297183362884  1.0000
  C   C1        1.0  0.10243923024387694  0.08156699677040638  0.09451034819992696  1.0000
  C   C2        1.0  0.8975607677979299  0.9184330034292897  0.9054896520129511  1.0000
  C   C3        1.0  0.1415522117373181  0.17974166090564558  0.9851570721728397  1.0000
  C   C4        1.0  0.8584477889856277  0.8202583379392767  0.014842927201389333  1.0000
  C   C5        1.0  0.9602934569585264  0.9006311478691615  0.1070733959615745  1.0000
  C   C6        1.0  0.03970654374419696  0.09936885076130772  0.8929266042545029  1.0000
  C   C7        1.0  0.5408310361152687  0.5659226461156923  0.3851558891396352  1.0000
  C   C8        1.0  0.4591689645874545  0.4340773525147767  0.6148441110764422  1.0000
  C   C9        1.0  0.49842247280012253  0.2819459410838552  0.5280513713273804  1.0000
  C   C10       1.0  0.5015775275442199  0.7180540591113296  0.47194862889001027  1.0000
  O   O1        1.0  0.3800663198443167  0.3893523145081256  0.4211802969099171  1.0000
  O   O2        1.0  0.619933680500026  0.610647685687059  0.5788197033074737  1.0000
  F   F1        1.0  0.2822828303124798  0.3537277141313473  0.9666247703751899  1.0000
  F   F2        1.0  0.7177171700318626  0.6462722860638374  0.033375229842200795  1.0000
  F   F3        1.0  0.917883290131115  0.7980129356669186  0.21135406599073464  1.0000
  F   F4        1.0  0.08211671021322745  0.20198706452826634  0.7886459342266563  1.0000
  I   I1        1.0  0.24220064535800628  0.20310264865864203  0.2350511936545926  1.0000
  I   I2        1.0  0.7577993550065587  0.7968973517509957  0.7649488057209499  1.0000
