data_image0
_chemical_formula_structural       H96C88N8O16
_chemical_formula_sum              "H96 C88 N8 O16"
_cell_length_a       21.160574467285375
_cell_length_b       7.2079402682576434
_cell_length_c       11.93757833756056
_cell_angle_alpha    90.0
_cell_angle_beta     93.29607073949025
_cell_angle_gamma    90.0

_space_group_name_H-M_alt    "P 1"
_space_group_IT_number       1

loop_
  _space_group_symop_operation_xyz
  'x, y, z'

loop_
  _atom_site_type_symbol
  _atom_site_label
  _atom_site_symmetry_multiplicity
  _atom_site_fract_x
  _atom_site_fract_y
  _atom_site_fract_z
  _atom_site_occupancy
  H   H1        1.0  0.16509025263076316  0.6365310711861746  0.3457521399188616  1.0000
  H   H2        1.0  0.6650902527074046  0.1365310717589903  0.34575214039497687  1.0000
  H   H3        1.0  0.8349097474047189  0.6365310711861746  0.15424786025232964  1.0000
  H   H4        1.0  0.3349097473280774  0.1365310717589903  0.15424785977621436  1.0000
  H   H5        1.0  0.8349097472898617  0.363468927668194  0.6542478603092649  1.0000
  H   H6        1.0  0.33490974721322014  0.8634689284827372  0.6542478598331496  1.0000
  H   H7        1.0  0.1650902529892568  0.363468927668194  0.8457521400188297  1.0000
  H   H8        1.0  0.6650902525925474  0.8634689284827372  0.8457521404519123  1.0000
  H   H9        1.0  0.9944887680793825  0.29228724595261785  0.4587236166207473  1.0000
  H   H10       1.0  0.494488768002741  0.7922872467671611  0.458723616144632  1.0000
  H   H11       1.0  0.005511231956099551  0.29228724595261785  0.041276383550443926  1.0000
  H   H12       1.0  0.5055112320297973  0.7922872467671611  0.04127638318858458  1.0000
  H   H13       1.0  0.005511231841242348  0.7077127529017507  0.5412763836073792  1.0000
  H   H14       1.0  0.5055112319149402  0.20771275347456644  0.5412763832455199  1.0000
  H   H15       1.0  0.9944887679645252  0.7077127529017507  0.9587236166776826  1.0000
  H   H16       1.0  0.4944887678878838  0.20771275347456644  0.9587236162015674  1.0000
  H   H17       1.0  0.0522986676698285  0.11721976994188364  0.4432256491739139  1.0000
  H   H18       1.0  0.55229866774647  0.6172197707564268  0.4432256496500291  1.0000
  H   H19       1.0  0.9477013323627097  0.11721976994188364  0.056774350159302676  1.0000
  H   H20       1.0  0.44770133228901204  0.6172197707564268  0.056774350521162045  1.0000
  H   H21       1.0  0.9477013322478526  0.8827802289124849  0.5567743502162379  1.0000
  H   H22       1.0  0.44770133217415486  0.38278022948530066  0.5567743505780973  1.0000
  H   H23       1.0  0.0522986675549713  0.8827802289124849  0.9432256492308492  1.0000
  H   H24       1.0  0.5522986676316128  0.38278022948530066  0.9432256497069645  1.0000
  H   H25       1.0  0.9768505303768443  0.5387243242151131  0.31040264800672174  1.0000
  H   H26       1.0  0.47685053077649764  0.03872432478792885  0.310402648411614  1.0000
  H   H27       1.0  0.023149469658637532  0.5387243242151131  0.1895973521644695  1.0000
  H   H28       1.0  0.5231494692589844  0.03872432478792885  0.1895973517595772  1.0000
  H   H29       1.0  0.02314946954083658  0.46127567602661435  0.6895973513834301  1.0000
  H   H30       1.0  0.523149469617478  0.9612756754537986  0.6895973518595455  1.0000
  H   H31       1.0  0.976850530735338  0.46127567602661435  0.8104026481066899  1.0000
  H   H32       1.0  0.47685053066164046  0.9612756754537986  0.8104026484685493  1.0000
  H   H33       1.0  0.10525515301566118  0.2932222051433423  0.16738384791527228  1.0000
  H   H34       1.0  0.6052551530923027  0.7932222045705265  0.16738384839138756  1.0000
  H   H35       1.0  0.8947448470198209  0.2932222051433423  0.33261615225591895  1.0000
  H   H36       1.0  0.3947448469431794  0.7932222045705265  0.33261615177980364  1.0000
  H   H37       1.0  0.8947448469020198  0.7067777950983852  0.8326161514748796  1.0000
  H   H38       1.0  0.3947448468283221  0.20677779428384205  0.832616151836739  1.0000
  H   H39       1.0  0.10525515290080396  0.7067777950983852  0.6673838479722075  1.0000
  H   H40       1.0  0.6052551529774454  0.20677779428384205  0.6673838484483228  1.0000
  H   H41       1.0  0.11895523983788168  0.11810094122849522  0.27139485612657077  1.0000
  H   H42       1.0  0.6189552399145232  0.6181009406556796  0.2713948566026861  1.0000
  H   H43       1.0  0.8810447601976004  0.11810094122849522  0.22860514404462043  1.0000
  H   H44       1.0  0.3810447601209589  0.6181009406556796  0.2286051435685051  1.0000
  H   H45       1.0  0.8810447600827431  0.8818990590132322  0.7286051441015556  1.0000
  H   H46       1.0  0.3810447600061016  0.381899059586048  0.7286051436254404  1.0000
  H   H47       1.0  0.11895523972302448  0.8818990590132322  0.7713948561835061  1.0000
  H   H48       1.0  0.6189552397967222  0.381899059586048  0.7713948558216468  1.0000
  H   H49       1.0  0.94455936715235  0.9924888517048255  0.39499715194386575  1.0000
  H   H50       1.0  0.44455936754905934  0.4924888522776412  0.3949971515107834  1.0000
  H   H51       1.0  0.05544063240978118  0.9924888517048255  0.10500284818429255  1.0000
  H   H52       1.0  0.5554406324834789  0.4924888522776412  0.10500284782243319  1.0000
  H   H53       1.0  0.055440632768274836  0.0075111485369019435  0.6050028482842607  1.0000
  H   H54       1.0  0.5554406328419725  0.5075111479640863  0.6050028479224014  1.0000
  H   H55       1.0  0.9445593675108437  0.0075111485369019435  0.894997152043834  1.0000
  H   H56       1.0  0.44455936743420216  0.5075111479640863  0.8949971515677186  1.0000
  H   H57       1.0  0.9651045438214031  0.8666988234504472  0.20542203124877972  1.0000
  H   H58       1.0  0.4651045437477052  0.3666988240232629  0.20542203161063907  1.0000
  H   H59       1.0  0.03489545621113528  0.8666988234504472  0.29457796808443687  1.0000
  H   H60       1.0  0.5348954562877768  0.3666988240232629  0.29457796856055213  1.0000
  H   H61       1.0  0.03489545609627809  0.13330117540392136  0.7945779681413722  1.0000
  H   H62       1.0  0.5348954561729196  0.6333011762184645  0.7945779686174874  1.0000
  H   H63       1.0  0.9651045437065456  0.13330117540392136  0.705422031305715  1.0000
  H   H64       1.0  0.4651045436328481  0.6333011762184645  0.7054220316675744  1.0000
  H   H65       1.0  0.12542899482091824  0.8258292103520565  0.502167896940518  1.0000
  H   H66       1.0  0.6254289948946159  0.32582921092487227  0.5021678965786586  1.0000
  H   H67       1.0  0.8745710049848494  0.8258292103520565  0.9978321033445439  1.0000
  H   H68       1.0  0.3745710049111516  0.32582921092487227  0.9978321037064032  1.0000
  H   H69       1.0  0.8745710050997065  0.17417078988967089  0.4978321032876086  1.0000
  H   H70       1.0  0.3745710050260088  0.6741707893168551  0.49783210364946795  1.0000
  H   H71       1.0  0.12542899493577545  0.17417078988967089  0.002167896883582659  1.0000
  H   H72       1.0  0.6254289950094732  0.6741707893168551  0.0021678965217233025  1.0000
  H   H73       1.0  0.15771470709693397  0.13410428555530435  0.5810936988905153  1.0000
  H   H74       1.0  0.6577147067002246  0.6341042849824886  0.5810936993235977  1.0000
  H   H75       1.0  0.8422852931792406  0.13410428555530435  0.9189063005996049  1.0000
  H   H76       1.0  0.342285293105543  0.6341042849824886  0.9189063009614642  1.0000
  H   H77       1.0  0.8422852932940978  0.865895714686423  0.4189063005426695  1.0000
  H   H78       1.0  0.34228529322040024  0.3658957152592388  0.4189063009045288  1.0000
  H   H79       1.0  0.15771470673844032  0.865895714686423  0.0810936987905471  1.0000
  H   H80       1.0  0.6577147068150818  0.3658957152592388  0.0810936992666624  1.0000
  H   H81       1.0  0.3142375106465329  0.11880329444059028  0.3616093823119348  1.0000
  H   H82       1.0  0.8142375107202308  0.6188032938677747  0.3616093819500754  1.0000
  H   H83       1.0  0.6857624893889491  0.11880329444059028  0.13839061785925644  1.0000
  H   H84       1.0  0.18576248931525138  0.6188032938677747  0.13839061822111579  1.0000
  H   H85       1.0  0.6857624892740919  0.8811967058011372  0.6383906179161917  1.0000
  H   H86       1.0  0.18576248919745042  0.38119670637395286  0.6383906174400764  1.0000
  H   H87       1.0  0.31423751053167565  0.8811967058011372  0.8616093823688701  1.0000
  H   H88       1.0  0.8142375106053734  0.38119670637395286  0.8616093820070108  1.0000
  H   H89       1.0  0.27253128637689855  0.823780089597679  0.2887551128266501  1.0000
  H   H90       1.0  0.7725312864535401  0.32378009017049475  0.28875511330276543  1.0000
  H   H91       1.0  0.7274687136585833  0.823780089597679  0.21124488734454108  1.0000
  H   H92       1.0  0.22746871358194198  0.32378009017049475  0.21124488686842582  1.0000
  H   H93       1.0  0.7274687135407825  0.17621991064404838  0.7112448865635017  1.0000
  H   H94       1.0  0.22746871346708478  0.6762199100712326  0.7112448869253611  1.0000
  H   H95       1.0  0.27253128673539223  0.17621991064404838  0.7887551129266183  1.0000
  H   H96       1.0  0.7725312863386827  0.6762199100712326  0.7887551133597008  1.0000
  C   C1        1.0  0.0968145810988596  0.4584102998953839  0.3731387429964467  1.0000
  C   C2        1.0  0.5968145807021502  0.9584102993225682  0.3731387434295291  1.0000
  C   C3        1.0  0.9031854189336787  0.4584102998953839  0.12686125633676984  1.0000
  C   C4        1.0  0.40318541885998094  0.9584102993225682  0.12686125669862922  1.0000
  C   C5        1.0  0.9031854192921722  0.5415897003463436  0.6268612564367381  1.0000
  C   C6        1.0  0.40318541921847456  0.04158970091915927  0.6268612567985974  1.0000
  C   C7        1.0  0.09681458098400238  0.5415897003463436  0.873138743053382  1.0000
  C   C8        1.0  0.5968145810606439  0.04158970091915927  0.8731387435294973  1.0000
  C   C9        1.0  0.05014388926404654  0.32634583562782643  0.31331878587824313  1.0000
  C   C10       1.0  0.550143889340688  0.8263458350550107  0.3133187863543585  1.0000
  C   C11       1.0  0.9498561107684917  0.32634583562782643  0.18668121345497343  1.0000
  C   C12       1.0  0.449856110694794  0.8263458350550107  0.18668121381683275  1.0000
  C   C13       1.0  0.9498561106536345  0.673654164613901  0.6866812135119087  1.0000
  C   C14       1.0  0.44985611057993674  0.17365416518671672  0.686681213873768  1.0000
  C   C15       1.0  0.050143889149189325  0.673654164613901  0.8133187859351784  1.0000
  C   C16       1.0  0.5501438892258308  0.17365416518671672  0.8133187864112937  1.0000
  C   C17       1.0  0.016848819311580308  0.20398405581618576  0.39724965002892126  1.0000
  C   C18       1.0  0.5168488193882217  0.7039840566307289  0.3972496505050366  1.0000
  C   C19       1.0  0.9831511807239016  0.20398405581618576  0.10275035014226994  1.0000
  C   C20       1.0  0.4831511806472602  0.7039840566307289  0.10275034966615464  1.0000
  C   C21       1.0  0.9831511806090444  0.7960159430381828  0.6027503501992052  1.0000
  C   C22       1.0  0.4831511805324031  0.29601594361099853  0.6027503497230899  1.0000
  C   C23       1.0  0.016848819196723108  0.7960159430381828  0.8972496500858566  1.0000
  C   C24       1.0  0.5168488192733647  0.29601594361099853  0.8972496505619717  1.0000
  C   C25       1.0  0.9999999999410996  0.4499826482030532  0.2499999996094803  1.0000
  C   C26       1.0  0.500000000017741  0.9499826490175964  0.25000000008559564  1.0000
  C   C27       1.0  0.9999999998262423  0.5500173506513153  0.7499999996664156  1.0000
  C   C28       1.0  0.4999999999028838  0.05001735122413106  0.7500000001425309  1.0000
  C   C29       1.0  0.08222764757937642  0.2038495263994715  0.22739825587872023  1.0000
  C   C30       1.0  0.5822276476530742  0.7038495272140146  0.22739825551686088  1.0000
  C   C31       1.0  0.9177723524561056  0.2038495263994715  0.27260174429247097  1.0000
  C   C32       1.0  0.4177723523824079  0.7038495272140146  0.2726017446543303  1.0000
  C   C33       1.0  0.9177723523412483  0.7961504724548971  0.7726017443494063  1.0000
  C   C34       1.0  0.4177723522675506  0.2961504730277128  0.7726017447112656  1.0000
  C   C35       1.0  0.08222764746451922  0.7961504724548971  0.7273982559356557  1.0000
  C   C36       1.0  0.5822276475382169  0.2961504730277128  0.7273982555737961  1.0000
  C   C37       1.0  0.9675685810481026  0.08066377749555702  0.3341422012472258  1.0000
  C   C38       1.0  0.46756858097440507  0.5806637769227413  0.3341422016090852  1.0000
  C   C39       1.0  0.032431418984435495  0.08066377749555702  0.16585779808599074  1.0000
  C   C40       1.0  0.5324314190610769  0.5806637769227413  0.16585779856210603  1.0000
  C   C41       1.0  0.032431419342929146  0.9193362227461704  0.6658577981859589  1.0000
  C   C42       1.0  0.5324314189462198  0.41933622193162723  0.6658577986190414  1.0000
  C   C43       1.0  0.9675685809332455  0.9193362227461704  0.8341422013041611  1.0000
  C   C44       1.0  0.46756858085954783  0.41933622193162723  0.8341422016660205  1.0000
  C   C45       1.0  0.9999999999410996  0.9574534198614032  0.2499999996094803  1.0000
  C   C46       1.0  0.500000000017741  0.4574534204342189  0.25000000008559564  1.0000
  C   C47       1.0  0.9999999998262423  0.04254657899296539  0.7499999996664156  1.0000
  C   C48       1.0  0.4999999999028838  0.5425465798075085  0.7500000001425309  1.0000
  C   C49       1.0  0.1662493171369721  0.9002747065728112  0.47305278206096335  1.0000
  C   C50       1.0  0.6662493172136136  0.40027470714562696  0.47305278253707855  1.0000
  C   C51       1.0  0.8337506828955662  0.9002747065728112  0.026947217272253243  1.0000
  C   C52       1.0  0.3337506828218684  0.40027470714562696  0.026947217634112612  1.0000
  C   C53       1.0  0.833750682780709  0.09972529366891619  0.5269472173291886  1.0000
  C   C54       1.0  0.3337506827070112  0.5997252930961005  0.5269472176910479  1.0000
  C   C55       1.0  0.16624931702211487  0.09972529366891619  0.9730527821178986  1.0000
  C   C56       1.0  0.6662493170987563  0.5997252930961005  0.9730527825940138  1.0000
  C   C57       1.0  0.18529798751632426  0.07094507181919416  0.5170743413125467  1.0000
  C   C58       1.0  0.6852979871166711  0.5709450712463784  0.5170743409076545  1.0000
  C   C59       1.0  0.8147020127627942  0.07094507181919416  0.982925659015548  1.0000
  C   C60       1.0  0.3147020126890965  0.5709450712463784  0.9829256593774073  1.0000
  C   C61       1.0  0.8147020128776513  0.9290549284225332  0.48292565895861267  1.0000
  C   C62       1.0  0.31470201280395366  0.42905492899534897  0.48292565932047204  1.0000
  C   C63       1.0  0.18529798715783063  0.9290549284225332  0.0170743412125785  1.0000
  C   C64       1.0  0.6852979872315283  0.42905492899534897  0.017074340850719138  1.0000
  C   C65       1.0  0.23904197238350616  0.15888448396879315  0.4778616626946352  1.0000
  C   C66       1.0  0.7390419724572039  0.6588844847833363  0.4778616623327759  1.0000
  C   C67       1.0  0.7609580276519758  0.15888448396879315  0.02213833747655598  1.0000
  C   C68       1.0  0.2609580275753344  0.6588844847833363  0.022138337000440687  1.0000
  C   C69       1.0  0.7609580275371186  0.8411155148855755  0.5221383375334913  1.0000
  C   C70       1.0  0.26095802746047714  0.34111551545839114  0.522138337057376  1.0000
  C   C71       1.0  0.23904197274199981  0.8411155148855755  0.9778616627946034  1.0000
  C   C72       1.0  0.7390419723423467  0.34111551545839114  0.9778616623897112  1.0000
  C   C73       1.0  0.27114452127594274  0.06563476005529652  0.39483057461443044  1.0000
  C   C74       1.0  0.7711445213496404  0.5656347594824808  0.39483057425257106  1.0000
  C   C75       1.0  0.7288554787595393  0.06563476005529652  0.10516942555676077  1.0000
  C   C76       1.0  0.22885547868584155  0.5656347594824808  0.10516942591862015  1.0000
  C   C77       1.0  0.728855478644682  0.9343652401864309  0.605169425613696  1.0000
  C   C78       1.0  0.22885547857098434  0.43436524075924665  0.6051694259755553  1.0000
  C   C79       1.0  0.2711445211610855  0.9343652401864309  0.8948305746713658  1.0000
  C   C80       1.0  0.7711445212347832  0.43436524075924665  0.8948305743095063  1.0000
  C   C81       1.0  0.24836101651415654  0.8964302116174307  0.3540148307278572  1.0000
  C   C82       1.0  0.7483610161145035  0.39643021080288765  0.35401483032296494  1.0000
  C   C83       1.0  0.7516389835213255  0.8964302116174307  0.145985169443334  1.0000
  C   C84       1.0  0.25163898391803485  0.39643021080288765  0.1459851690102516  1.0000
  C   C85       1.0  0.7516389838798192  0.10356978862429662  0.6459851695433022  1.0000
  C   C86       1.0  0.2516389838031777  0.6035697894388398  0.6459851690671868  1.0000
  C   C87       1.0  0.24836101639929933  0.10356978862429662  0.8540148307847926  1.0000
  C   C88       1.0  0.7483610164729971  0.6035697894388398  0.8540148304229331  1.0000
  N   N1        1.0  0.1969044813252095  0.81463138864487  0.3923266291146729  1.0000
  N   N2        1.0  0.696904481401851  0.31463138921768563  0.39232662959078823  1.0000
  N   N3        1.0  0.8030955187102725  0.81463138864487  0.1076733710565183  1.0000
  N   N4        1.0  0.30309551863363104  0.31463138921768563  0.107673370580403  1.0000
  N   N5        1.0  0.8030955185954153  0.18536861159685752  0.6076733711134535  1.0000
  N   N6        1.0  0.30309551851877387  0.6853686110240419  0.6076733706373383  1.0000
  N   N7        1.0  0.19690448121035228  0.18536861159685752  0.8923266291716082  1.0000
  N   N8        1.0  0.6969044812840499  0.6853686110240419  0.8923266288097489  1.0000
  O   O1        1.0  0.13931400703950045  0.5271823015423711  0.30575637893910723  1.0000
  O   O2        1.0  0.639314007116142  0.027182300727827933  0.3057563794152226  1.0000
  O   O3        1.0  0.8606859929930377  0.5271823015423711  0.19424362039410928  1.0000
  O   O4        1.0  0.36068599291934006  0.027182300727827933  0.19424362075596865  1.0000
  O   O5        1.0  0.8606859928781807  0.4728176986993563  0.6942436204510446  1.0000
  O   O6        1.0  0.3606859928044829  0.9728176995138995  0.6942436208129039  1.0000
  O   O7        1.0  0.13931400692464324  0.4728176986993563  0.8057563789960425  1.0000
  O   O8        1.0  0.6393140070012847  0.9728176995138995  0.8057563794721578  1.0000
  O   O9        1.0  0.09426361011580983  0.5039313028155862  0.4724324199990202  1.0000
  O   O10       1.0  0.5942636101895076  0.003931303388401932  0.4724324196371608  1.0000
  O   O11       1.0  0.9057363899196723  0.5039313028155862  0.02756758017217104  1.0000
  O   O12       1.0  0.4057363898459745  0.003931303388401932  0.027567580534030394  1.0000
  O   O13       1.0  0.905736389804815  0.4960686960387824  0.5275675802291063  1.0000
  O   O14       1.0  0.40573638973111725  0.9960686968533254  0.5275675805909656  1.0000
  O   O15       1.0  0.09426361000095262  0.4960686960387824  0.9724324200559555  1.0000
  O   O16       1.0  0.5942636100746503  0.9960686968533254  0.9724324196940961  1.0000
