data_image0
_chemical_formula_structural       H72C78N4O4P4S2
_chemical_formula_sum              "H72 C78 N4 O4 P4 S2"
_cell_length_a       10.393041744403888
_cell_length_b       17.079907104322032
_cell_length_c       9.329232090677982
_cell_angle_alpha    95.88025757534645
_cell_angle_beta     92.34562029565845
_cell_angle_gamma    91.66613203015706

_space_group_name_H-M_alt    "P 1"
_space_group_IT_number       1

loop_
  _space_group_symop_operation_xyz
  'x, y, z'

loop_
  _atom_site_type_symbol
  _atom_site_label
  _atom_site_symmetry_multiplicity
  _atom_site_fract_x
  _atom_site_fract_y
  _atom_site_fract_z
  _atom_site_occupancy
  H   H1        1.0  0.5313214719076917  0.6226038025719762  0.4787800938011251  1.0000
  H   H2        1.0  0.46867852795910114  0.37739619788319173  0.5212199055219083  1.0000
  H   H3        1.0  0.4683455405443631  0.49206207550361886  0.3496995896390936  1.0000
  H   H4        1.0  0.5316544593365902  0.5079379244233907  0.6503004107566301  1.0000
  H   H5        1.0  0.27816602797788675  0.4791147530205834  0.17562487139949512  1.0000
  H   H6        1.0  0.7218339719030668  0.520885246906426  0.8243751289962287  1.0000
  H   H7        1.0  0.1575266725317664  0.5978135611123732  0.12596982875295773  1.0000
  H   H8        1.0  0.842473327349187  0.40218643881463617  0.874030171642766  1.0000
  H   H9        1.0  0.22102146354742128  0.7277374028866495  0.25017578340080693  1.0000
  H   H10       1.0  0.7789785363335321  0.27226259704035993  0.7498242169949169  1.0000
  H   H11       1.0  0.25874541004107776  0.8606037839260959  0.2876481323871153  1.0000
  H   H12       1.0  0.7412545898678772  0.13939621658697066  0.7123518680145235  1.0000
  H   H13       1.0  0.05884017398513592  0.9307473229194813  0.33696473813240924  1.0000
  H   H14       1.0  0.9411598258958175  0.06925267700752813  0.6630352622633144  1.0000
  H   H15       1.0  0.9750324175092631  0.9437977936555367  0.5851315487535285  1.0000
  H   H16       1.0  0.024967582329527952  0.056202206213574114  0.4148684505635899  1.0000
  H   H17       1.0  0.09336079377285753  0.8840946455753087  0.7840034582016087  1.0000
  H   H18       1.0  0.9066392061080959  0.1159053543517006  0.21599654219411515  1.0000
  H   H19       1.0  0.29218446822006366  0.8127953611387229  0.7349048326323224  1.0000
  H   H20       1.0  0.7078155316608896  0.1872046387882866  0.2650951677634013  1.0000
  H   H21       1.0  0.5324136702746022  0.9335098923254821  0.5301573068497676  1.0000
  H   H22       1.0  0.467586329564189  0.06649010754362876  0.4698426924673508  1.0000
  H   H23       1.0  0.6874313028836103  0.01232581988649175  0.4054429005822245  1.0000
  H   H24       1.0  0.3125686969973431  0.9876741800405175  0.5945570998134994  1.0000
  H   H25       1.0  0.7732960034090677  0.9569521384369826  0.17211833057166895  1.0000
  H   H26       1.0  0.22670399642972336  0.04304786143212818  0.8278816687454493  1.0000
  H   H27       1.0  0.7017831962490028  0.8232521779552903  0.06433713283657753  1.0000
  H   H28       1.0  0.29821680358978847  0.1767478219138206  0.9356628664805406  1.0000
  H   H29       1.0  0.5460848049149766  0.7436560076908252  0.18763303996633693  1.0000
  H   H30       1.0  0.4539151949659768  0.25634399223618415  0.8123669604293868  1.0000
  H   H31       1.0  0.49311298075167553  0.9023574447824652  0.7775082226060497  1.0000
  H   H32       1.0  0.5068870191292778  0.09764255514454415  0.2224917777896741  1.0000
  H   H33       1.0  0.5619062634232102  0.038227112232051115  0.8817458490268545  1.0000
  H   H34       1.0  0.43809373641558097  0.9617728876370596  0.11825415029026393  1.0000
  H   H35       1.0  0.7937844036448125  0.07158726964453259  0.9383440444068376  1.0000
  H   H36       1.0  0.2062155962219803  0.9284127308106355  0.061655954916195806  1.0000
  H   H37       1.0  0.9566393912073439  0.9682756632066402  0.8989105602161368  1.0000
  H   H38       1.0  0.04336060867360956  0.031724336720369326  0.1010894401795868  1.0000
  H   H39       1.0  0.8899796833265203  0.8336151681535947  0.7944911167543979  1.0000
  H   H40       1.0  0.11002031654027244  0.1663848323015734  0.20550888256863545  1.0000
  H   H41       1.0  0.8333410893174646  0.7165715761302046  0.9058933426520862  1.0000
  H   H42       1.0  0.16665891054932808  0.2834284243249635  0.09410665667094731  1.0000
  H   H43       1.0  0.8212544463717262  0.6287867429874242  0.09959604768816614  1.0000
  H   H44       1.0  0.1787455534670649  0.37121325688168666  0.900403951628952  1.0000
  H   H45       1.0  0.6161070065882484  0.5608410257426583  0.1446695803181183  1.0000
  H   H46       1.0  0.38389299329270493  0.43915897418435107  0.8553304200776054  1.0000
  H   H47       1.0  0.4171943637606336  0.5815069535817734  0.9947067613406114  1.0000
  H   H48       1.0  0.5828056361203198  0.4184930463452358  0.005293239055112257  1.0000
  H   H49       1.0  0.42621852389449144  0.6710596300506645  0.8016412694200794  1.0000
  H   H50       1.0  0.573781475986462  0.32894036987634495  0.19835873097564438  1.0000
  H   H51       1.0  0.8032451501288949  0.8362084260200042  0.49779015263690535  1.0000
  H   H52       1.0  0.19675484970989623  0.1637915738491066  0.5022098466802128  1.0000
  H   H53       1.0  0.9495949996588641  0.7779224748143521  0.314516315649233  1.0000
  H   H54       1.0  0.05040500121228978  0.22207752569886158  0.6854836847526652  1.0000
  H   H55       1.0  0.9848585478367017  0.6345852934887868  0.29104486895518966  1.0000
  H   H56       1.0  0.015141452072253212  0.3654147070242799  0.7089551314464491  1.0000
  H   H57       1.0  0.8716344786049516  0.5478574848061891  0.448623258077505  1.0000
  H   H58       1.0  0.1283655222382007  0.4521425151209675  0.5513767423184781  1.0000
  H   H59       1.0  0.7283223414501646  0.605406227076694  0.6333324562806683  1.0000
  H   H60       1.0  0.27167765939298744  0.39459377285046254  0.366667544115315  1.0000
  H   H61       1.0  0.9167661103226293  0.3543961593502455  0.3967743287500184  1.0000
  H   H62       1.0  0.08323388955832427  0.6456038405767639  0.6032256716457054  1.0000
  H   H63       1.0  0.7455284874001112  0.36938628934230505  0.39552484512844216  1.0000
  H   H64       1.0  0.2544715124386799  0.6306137105268058  0.6044751541886763  1.0000
  H   H65       1.0  0.81541031408811  0.30462131853870134  0.25730966784212483  1.0000
  H   H66       1.0  0.18458968579284324  0.695378681388308  0.7426903325535988  1.0000
  H   H67       1.0  0.04972567220869796  0.44102290335897554  0.24028219081246174  1.0000
  H   H68       1.0  0.950274328634454  0.558977096568181  0.7597178095835214  1.0000
  H   H69       1.0  0.988036514717496  0.37029804701273533  0.10152087880458582  1.0000
  H   H70       1.0  0.01196348514929694  0.6297019534424328  0.8984791205184477  1.0000
  H   H71       1.0  0.9686329288206176  0.4739445086632545  0.08450190331344354  1.0000
  H   H72       1.0  0.031367071060335795  0.5260554912637548  0.9154980970822801  1.0000
  C   C1        1.0  0.3808144185752694  0.6836566123911618  0.37367806574323054  1.0000
  C   C2        1.0  0.619185581305684  0.31634338753584756  0.6263219346524932  1.0000
  C   C3        1.0  0.44941226600586265  0.616896828056371  0.40143325191650603  1.0000
  C   C4        1.0  0.5505877338750907  0.38310317187063825  0.5985667484792176  1.0000
  C   C5        1.0  0.41266590108683343  0.5433822387043713  0.33047014673358277  1.0000
  C   C6        1.0  0.5873340987941199  0.45661776122263786  0.6695298536621409  1.0000
  C   C7        1.0  0.30640669413001087  0.5362546173259312  0.2327982632820939  1.0000
  C   C8        1.0  0.6935933057789442  0.4637453831871354  0.767201737119545  1.0000
  C   C9        1.0  0.2385191529726097  0.6028097722799878  0.20466357668061302  1.0000
  C   C10       1.0  0.7614808478283801  0.3971902275892703  0.7953364226367647  1.0000
  C   C11       1.0  0.27521027816908183  0.6766522327580184  0.27431166873594315  1.0000
  C   C12       1.0  0.7247897217118715  0.32334776716899083  0.7256883316597805  1.0000
  C   C13       1.0  0.287642608007666  0.8319783962266188  0.5085928896346124  1.0000
  C   C14       1.0  0.7123573918311251  0.168021603642492  0.491407109682506  1.0000
  C   C15       1.0  0.22311280060031932  0.8659843795954218  0.396618733885408  1.0000
  C   C16       1.0  0.7768871992384719  0.13401562027368907  0.6033812654317103  1.0000
  C   C17       1.0  0.11052609486768689  0.9060406894159344  0.42501102270553914  1.0000
  C   C18       1.0  0.8894739050132665  0.09395931051107499  0.5749889776901846  1.0000
  C   C19       1.0  0.06364504327175946  0.9129780899472714  0.5638690386858072  1.0000
  C   C20       1.0  0.936354956609194  0.08702190997973802  0.43613096170991655  1.0000
  C   C21       1.0  0.12919981941157588  0.8799127085777  0.6754295329157439  1.0000
  C   C22       1.0  0.8708001804272153  0.12008729129141092  0.3245704664013744  1.0000
  C   C23       1.0  0.24133719828822756  0.8391968752551241  0.6482544928182412  1.0000
  C   C24       1.0  0.7586628015927258  0.1608031246718854  0.3517455075774826  1.0000
  C   C25       1.0  0.5297307155662706  0.8332358448743954  0.3670667150494734  1.0000
  C   C26       1.0  0.4702692843146827  0.16676415505261405  0.6329332853462503  1.0000
  C   C27       1.0  0.5688819299792219  0.9094036916920598  0.4275886365149104  1.0000
  C   C28       1.0  0.4311180698595692  0.09059630817705093  0.572411362802208  1.0000
  C   C29       1.0  0.6564872698746657  0.9536674329159506  0.3578385446044389  1.0000
  C   C30       1.0  0.34351273000628774  0.046332567011058916  0.6421614557912848  1.0000
  C   C31       1.0  0.7047843872801994  0.9223978291374416  0.22717926459395058  1.0000
  C   C32       1.0  0.29521561260075396  0.07760217078956773  0.7728207358017732  1.0000
  C   C33       1.0  0.6644117058631024  0.8473213781173284  0.16609449724129952  1.0000
  C   C34       1.0  0.3355882939756888  0.15267862175178243  0.8339055020758188  1.0000
  C   C35       1.0  0.5768024228781378  0.8023221946418473  0.23551237878058784  1.0000
  C   C36       1.0  0.4231975769606534  0.19767780522726355  0.7644876205365305  1.0000
  C   C37       1.0  0.6872104095713555  0.8599801861124368  0.775656277032549  1.0000
  C   C38       1.0  0.3127895912997982  0.14001981440077704  0.2243437233693491  1.0000
  C   C39       1.0  0.594722717772621  0.9173567880877709  0.803369275148437  1.0000
  C   C40       1.0  0.4052772820661702  0.08264321178134001  0.19663072416868133  1.0000
  C   C41       1.0  0.6331423669783071  0.993135896531921  0.8625816220496637  1.0000
  C   C42       1.0  0.36685763286048406  0.00686410333718999  0.1374183772674547  1.0000
  C   C43       1.0  0.7635836529705234  0.011655960031168564  0.8959575685882951  1.0000
  C   C44       1.0  0.23641634787262863  0.988344039895988  0.1040424318076882  1.0000
  C   C45       1.0  0.8550061909183195  0.9539739722646379  0.8719860597397828  1.0000
  C   C46       1.0  0.14499380892047148  0.04602602760447297  0.12801393957733553  1.0000
  C   C47       1.0  0.8176363070782844  0.8781263184897763  0.8121261779344322  1.0000
  C   C48       1.0  0.1823636927605068  0.12187368137933442  0.18787382138268605  1.0000
  C   C49       1.0  0.6293929398476553  0.6990046477555452  0.8405579129140716  1.0000
  C   C50       1.0  0.37060706003329813  0.3009953521714641  0.15944208748165206  1.0000
  C   C51       1.0  0.741324039561938  0.6874485306082612  0.9244181312303182  1.0000
  C   C52       1.0  0.2586759603190154  0.3125514693187483  0.07558186916540542  1.0000
  C   C53       1.0  0.7350015192338007  0.6382114591007724  0.03416696942084971  1.0000
  C   C54       1.0  0.264998480632992  0.36178854135439564  0.9658330299021837  1.0000
  C   C55       1.0  0.6184357139216742  0.6002657559962415  0.060316559587188984  1.0000
  C   C56       1.0  0.381564285917117  0.39973424387286927  0.9396834397299293  1.0000
  C   C57       1.0  0.5077281128111771  0.6116386117114975  0.9762963932116872  1.0000
  C   C58       1.0  0.49227188706977626  0.38836138821551186  0.023703607184036576  1.0000
  C   C59       1.0  0.512464144945412  0.6613739527530748  0.8667763171072687  1.0000
  C   C60       1.0  0.4875358559257418  0.338626047760139  0.13322368329462958  1.0000
  C   C61       1.0  0.7567663982239988  0.7247903688280503  0.5784919730947917  1.0000
  C   C62       1.0  0.24323360161479224  0.2752096310410606  0.42150802622232664  1.0000
  C   C63       1.0  0.8191992955062162  0.7731957281741756  0.4882902355271833  1.0000
  C   C64       1.0  0.1808007043325751  0.2268042716949354  0.511709763789935  1.0000
  C   C65       1.0  0.9009713389884166  0.7405804084121931  0.38509811687541967  1.0000
  C   C66       1.0  0.09902866089253681  0.25941959151481636  0.6149018835203042  1.0000
  C   C67       1.0  0.9201941513694797  0.6596752555264953  0.3712296728956987  1.0000
  C   C68       1.0  0.07980584851147364  0.34032474440051413  0.628770327500025  1.0000
  C   C69       1.0  0.8578972361946023  0.6110671032089178  0.4601882946648515  1.0000
  C   C70       1.0  0.14210276371435276  0.38893289730414876  0.5398117057367874  1.0000
  C   C71       1.0  0.7765507924095154  0.6433808058633494  0.5637351299676705  1.0000
  C   C72       1.0  0.22344920742927576  0.3566191940057614  0.4362648693494478  1.0000
  C   C73       1.0  0.8440303940191294  0.4240441054225593  0.23229551812062096  1.0000
  C   C74       1.0  0.15596960685202435  0.5759558950906544  0.7677044822812772  1.0000
  C   C75       1.0  0.8292390001901985  0.36008960118835925  0.32920731861152425  1.0000
  C   C76       1.0  0.1707609996907549  0.6399103987386501  0.6707926817841995  1.0000
  C   C77       1.0  0.9700559982577146  0.4284153383301906  0.15903756256222298  1.0000
  C   C78       1.0  0.029944001623238813  0.5715846615968188  0.8409624378335007  1.0000
  N   N1        1.0  0.2097912971776178  0.7731309513275265  0.9670356408035397  1.0000
  N   N2        1.0  0.790208703623372  0.22686904854173148  0.0329643585138382  1.0000
  N   N3        1.0  0.49448885258477016  0.7615228543089865  0.6254548929422191  1.0000
  N   N4        1.0  0.5055111472820226  0.23847714614618162  0.37454510638081423  1.0000
  O   O1        1.0  0.3037256814159108  0.8047490226089444  0.0410978308548307  1.0000
  O   O2        1.0  0.6962743184228803  0.1952509772601664  0.9589021684622876  1.0000
  O   O3        1.0  0.7565980294994686  0.4690786681014825  0.20975172118409247  1.0000
  O   O4        1.0  0.24340197038148476  0.5309213318255268  0.7902482792116312  1.0000
  P   P1        1.0  0.4294272788722962  0.7766316636842646  0.4741275635648885  1.0000
  P   P2        1.0  0.570572720966495  0.2233683361848463  0.5258724357522299  1.0000
  P   P3        1.0  0.6352347795747235  0.7623263391872211  0.6983102885215235  1.0000
  P   P4        1.0  0.36476522026406766  0.23767366068188964  0.3016897107955947  1.0000
  S   S1        1.0  0.058786126913156295  0.7829565992461703  0.03403536307710163  1.0000
  S   S2        1.0  0.9412138739299958  0.2170434006809862  0.9659646373188816  1.0000
