data_image0
_chemical_formula_structural       H104C76N8O8S4Cl8
_chemical_formula_sum              "H104 C76 N8 O8 S4 Cl8"
_cell_length_a       6.652895476026002
_cell_length_b       11.813864895376895
_cell_length_c       26.020121056569774
_cell_angle_alpha    90.0
_cell_angle_beta     90.0
_cell_angle_gamma    90.0

_space_group_name_H-M_alt    "P 1"
_space_group_IT_number       1

loop_
  _space_group_symop_operation_xyz
  'x, y, z'

loop_
  _atom_site_type_symbol
  _atom_site_label
  _atom_site_symmetry_multiplicity
  _atom_site_fract_x
  _atom_site_fract_y
  _atom_site_fract_z
  _atom_site_occupancy
  H   H1        1.0  0.7959169521122512  0.03013060274113148  0.22726477164128803  1.0000
  H   H2        1.0  0.7040830472806443  0.9698693976501973  0.7272647717072029  1.0000
  H   H3        1.0  0.2959169518135844  0.46986939745453293  0.7727352281062237  1.0000
  H   H4        1.0  0.20408304848508244  0.5301306029367958  0.27273522804030886  1.0000
  H   H5        1.0  0.836248949055074  0.6836654263043637  0.21485032786150246  1.0000
  H   H6        1.0  0.6637510503378216  0.31633457408696525  0.7148503279274174  1.0000
  H   H7        1.0  0.33624894875640715  0.8163345742826297  0.7851496718860093  1.0000
  H   H8        1.0  0.16375105154225966  0.18366542610869915  0.28514967182009443  1.0000
  H   H9        1.0  0.9301439113690075  0.7444853905043247  0.15757762775530018  1.0000
  H   H10       1.0  0.5698560880238881  0.2555146090405411  0.6575776278212151  1.0000
  H   H11       1.0  0.43014391107034067  0.7555146092362055  0.8424223723765296  1.0000
  H   H12       1.0  0.06985608922832619  0.2444853903086603  0.34242237231061473  1.0000
  H   H13       1.0  0.20914663021748667  0.7099668308617827  0.22323270354399108  1.0000
  H   H14       1.0  0.2908533700811802  0.29003316868308304  0.723232703609906  1.0000
  H   H15       1.0  0.7091466305161536  0.7900331688787475  0.7767672965878387  1.0000
  H   H16       1.0  0.790853370379847  0.20996683151258136  0.27676729652192383  1.0000
  H   H17       1.0  0.8394800594907427  0.9404801670237434  0.30643143137824924  1.0000
  H   H18       1.0  0.660519941405258  0.05951983336758544  0.8064314314441642  1.0000
  H   H19       1.0  0.3394800591920758  0.5595198327167867  0.6935685683692625  1.0000
  H   H20       1.0  0.1605199411065911  0.44048016682807895  0.1935685686876656  1.0000
  H   H21       1.0  0.07292636443009462  0.005192640219206005  0.28947159406463396  1.0000
  H   H22       1.0  0.4270736343654673  0.9948073601721228  0.7894715941305488  1.0000
  H   H23       1.0  0.5729263647287615  0.4948073599764584  0.7105284056828778  1.0000
  H   H24       1.0  0.9270736346641342  0.5051926395684073  0.21052840561696293  1.0000
  H   H25       1.0  0.2522469285813023  0.854241309628422  0.15601050898935176  1.0000
  H   H26       1.0  0.2477530702142596  0.14575868991644367  0.6560105090552667  1.0000
  H   H27       1.0  0.7522469288799691  0.6457586901121081  0.84398949075816  1.0000
  H   H28       1.0  0.7477530705129265  0.35424131027922073  0.34398949069224516  1.0000
  H   H29       1.0  0.347890365682179  0.9102851907683779  0.2143915982509042  1.0000
  H   H30       1.0  0.15210963461648783  0.0897148087764878  0.7143915983168191  1.0000
  H   H31       1.0  0.8478903659808458  0.5897148089721522  0.7856084018809256  1.0000
  H   H32       1.0  0.6521096349151547  0.41028519141917663  0.2856084018150106  1.0000
  H   H33       1.0  0.5710022461181311  0.9274949914390767  0.3670931226351186  1.0000
  H   H34       1.0  0.9289977547778694  0.07250500810578918  0.8670931227010334  1.0000
  H   H35       1.0  0.0710022458194643  0.5725050083014536  0.6329068771123931  1.0000
  H   H36       1.0  0.4289977544792026  0.42749499124341217  0.13290687743079627  1.0000
  H   H37       1.0  0.13105996676815854  0.061799336327750365  0.20364766706810078  1.0000
  H   H38       1.0  0.3689400335305083  0.9382006640635785  0.7036476667496977  1.0000
  H   H39       1.0  0.6310599670668253  0.438200663867914  0.7963523330637289  1.0000
  H   H40       1.0  0.8689400338291752  0.5617993365234147  0.2963523329978141  1.0000
  H   H41       1.0  0.9975430342946309  0.9937109306704557  0.15334779232291618  1.0000
  H   H42       1.0  0.5024569650982648  0.006289068874410019  0.653347792388831  1.0000
  H   H43       1.0  0.4975430354990689  0.5062890690700744  0.8466522078089135  1.0000
  H   H44       1.0  0.0024569647995979003  0.4937109313212544  0.34665220774299865  1.0000
  H   H45       1.0  0.6893639929451487  0.8902688462364088  0.17361645513403096  1.0000
  H   H46       1.0  0.810636006447747  0.10973115415492002  0.6736164551999458  1.0000
  H   H47       1.0  0.18936399264648185  0.6097311543505844  0.8263835446134808  1.0000
  H   H48       1.0  0.3106360061490801  0.3902688460407444  0.32638354493188393  1.0000
  H   H49       1.0  0.6548107159804977  0.843942362494905  0.23795132991653448  1.0000
  H   H50       1.0  0.8451892849155028  0.1560576378964238  0.7379513299824494  1.0000
  H   H51       1.0  0.15481071568183083  0.6560576372456252  0.7620486698309773  1.0000
  H   H52       1.0  0.345189284616836  0.3439423622992406  0.2620486701493804  1.0000
  H   H53       1.0  0.9765393118547484  0.7569769393164115  0.29842488369359127  1.0000
  H   H54       1.0  0.5234606890412521  0.2430230602284542  0.7984248833751881  1.0000
  H   H55       1.0  0.47653931155608154  0.7430230604241186  0.7015751164382386  1.0000
  H   H56       1.0  0.02346068874258532  0.25697693996721016  0.2015751163723236  1.0000
  H   H57       1.0  0.2546435377054733  0.7002201610784623  0.4822497855686082  1.0000
  H   H58       1.0  0.24535646259319352  0.2997798393128665  0.982249785634523  1.0000
  H   H59       1.0  0.7546435380041402  0.7997798395085309  0.5177502145632216  1.0000
  H   H60       1.0  0.7453564628918604  0.2002201608827979  0.017750214497306696  1.0000
  H   H61       1.0  0.9207945160231551  0.9847125765381345  0.4203395870534762  1.0000
  H   H62       1.0  0.5792054833697405  0.015287423853194341  0.9203395871193911  1.0000
  H   H63       1.0  0.4207945157244882  0.5152874232023957  0.5796604130783535  1.0000
  H   H64       1.0  0.07920548307107367  0.48471257634247  0.07966041301243866  1.0000
  H   H65       1.0  0.2160480027349798  0.9074285142870677  0.4689478893457768  1.0000
  H   H66       1.0  0.2839519975636871  0.09257148610426108  0.9689478890273737  1.0000
  H   H67       1.0  0.7160480030336466  0.5925714854534624  0.5310521107860529  1.0000
  H   H68       1.0  0.7839519978623539  0.4074285140914033  0.031052110720138044  1.0000
  H   H69       1.0  0.34130950924789877  0.899435589800776  0.3079048219100093  1.0000
  H   H70       1.0  0.15869049105076813  0.1005644105905528  0.8079048215916063  1.0000
  H   H71       1.0  0.8413095080434606  0.6005644107862171  0.6920951782218204  1.0000
  H   H72       1.0  0.658690491349435  0.39943558960511155  0.19209517815590554  1.0000
  H   H73       1.0  0.6344893716143967  0.11399993075314699  0.34840577183675525  1.0000
  H   H74       1.0  0.8655106292816038  0.8860000687917187  0.8484057719026701  1.0000
  H   H75       1.0  0.13448937131572983  0.38600006859605435  0.6515942279107565  1.0000
  H   H76       1.0  0.365510628982937  0.6139999309488113  0.1515942282291596  1.0000
  H   H77       1.0  0.4944903796933097  0.27529877045341317  0.3841177820914263  1.0000
  H   H78       1.0  0.005509620605357117  0.7247012290914526  0.8841177821573412  1.0000
  H   H79       1.0  0.9944903799919765  0.22470122889578817  0.6158822180404036  1.0000
  H   H80       1.0  0.505509620904024  0.7752987706490776  0.11588221797448864  1.0000
  H   H81       1.0  0.30202264070444074  0.09229805484119796  0.38328975711978375  1.0000
  H   H82       1.0  0.19797735959422616  0.9077019455501308  0.8832897571856987  1.0000
  H   H83       1.0  0.8020226410031076  0.40770194535446647  0.616710243012046  1.0000
  H   H84       1.0  0.697977359892893  0.5922980550368624  0.11671024294613111  1.0000
  H   H85       1.0  0.24087701599623582  0.17710304532251475  0.43758440382525315  1.0000
  H   H86       1.0  0.2591229827993261  0.822896954222351  0.937584403891168  1.0000
  H   H87       1.0  0.7408770162949027  0.3228969548731497  0.5624155963065767  1.0000
  H   H88       1.0  0.759122983097993  0.6771030455181791  0.062415596240661744  1.0000
  H   H89       1.0  0.4045320056054164  0.05856253614943072  0.4447896827550628  1.0000
  H   H90       1.0  0.09546799469325042  0.9414374642418981  0.9447896828209776  1.0000
  H   H91       1.0  0.9045320059040833  0.4414374640462337  0.5552103173767668  1.0000
  H   H92       1.0  0.5954679949919173  0.5585625363450951  0.05521031731085205  1.0000
  H   H93       1.0  0.6954769733980286  0.1781177276560406  0.48044654107570245  1.0000
  H   H94       1.0  0.8045230259948671  0.8218822727352881  0.9804465411416173  1.0000
  H   H95       1.0  0.19547697460246666  0.3218822725396238  0.5195534586718094  1.0000
  H   H96       1.0  0.3045230256962002  0.678117727851705  0.01955345899021243  1.0000
  H   H97       1.0  0.5326447518632488  0.2979349654978181  0.47930635844797753  1.0000
  H   H98       1.0  0.9673552475296469  0.7020650348935106  0.9793063585138925  1.0000
  H   H99       1.0  0.03264475306768688  0.20206503469784626  0.5206936416838522  1.0000
  H   H100      1.0  0.46735524723098  0.7979349648470194  0.02069364161793734  1.0000
  H   H101      1.0  0.7685562607176629  0.30348530660808937  0.44733784999286513  1.0000
  H   H102      1.0  0.7314437386752326  0.6965146929367764  0.94733785005878  1.0000
  H   H103      1.0  0.2685562604189961  0.19651469274111202  0.5526621497546467  1.0000
  H   H104      1.0  0.2314437383765658  0.8034853068037539  0.05266215007304978  1.0000
  C   C1        1.0  0.5135196956439675  0.7464379784342093  0.3646237524942069  1.0000
  C   C2        1.0  0.9864803052520332  0.2535620211106565  0.8646237525601218  1.0000
  C   C3        1.0  0.013519695345300578  0.7535620213063209  0.6353762476376228  1.0000
  C   C4        1.0  0.48648030495336625  0.24643797823854482  0.1353762475717079  1.0000
  C   C5        1.0  0.9076203769861242  0.7596045857534508  0.1988075773649746  1.0000
  C   C6        1.0  0.5923796224067713  0.24039541463787803  0.6988075774308895  1.0000
  C   C7        1.0  0.40762037668745743  0.7403954148335423  0.8011924227668552  1.0000
  C   C8        1.0  0.09237962361120944  0.25960458555778637  0.30119242270094027  1.0000
  C   C9        1.0  0.11127237045398408  0.784714168656848  0.2237834173538479  1.0000
  C   C10       1.0  0.38872762834157787  0.21528583173448082  0.7237834174197628  1.0000
  C   C11       1.0  0.6112723707526508  0.7152858319301452  0.7762165823936639  1.0000
  C   C12       1.0  0.8887276286402447  0.2847141684611836  0.27621658271206695  1.0000
  C   C13       1.0  0.8152047254528073  0.6996679091221568  0.41567997729468964  1.0000
  C   C14       1.0  0.6847952754431933  0.3003320904227089  0.9156799773606045  1.0000
  C   C15       1.0  0.31520472515414044  0.8003320906183733  0.5843200224528221  1.0000
  C   C16       1.0  0.18479527514452643  0.19966790892649244  0.08432002238690724  1.0000
  C   C17       1.0  0.9676253630013952  0.9366756381588849  0.2801682388083801  1.0000
  C   C18       1.0  0.5323746363915003  0.06332436223244395  0.780168238874295  1.0000
  C   C19       1.0  0.4676253627027284  0.5633243615816453  0.7198317613234496  1.0000
  C   C20       1.0  0.03237463759593842  0.4366756379632204  0.21983176125753479  1.0000
  C   C21       1.0  0.21087545942297273  0.8825027289824436  0.19469587627921092  1.0000
  C   C22       1.0  0.2891245393725892  0.11749727140888518  0.6946958763451258  1.0000
  C   C23       1.0  0.7108754597216396  0.6174972707580866  0.8053041234683008  1.0000
  C   C24       1.0  0.789124539671256  0.3825027287867792  0.3053041237867039  1.0000
  C   C25       1.0  0.6174307013844247  0.8424121037556948  0.3778343612862521  1.0000
  C   C26       1.0  0.882569298008471  0.15758789578917104  0.8778343613521671  1.0000
  C   C27       1.0  0.11743070108575784  0.6575878959848355  0.6221656388455776  1.0000
  C   C28       1.0  0.382569299212909  0.3424121035600303  0.12216563877966276  1.0000
  C   C29       1.0  0.06297442091338255  0.9818298772435685  0.1914539932066223  1.0000
  C   C30       1.0  0.4370255793852843  0.018170123147760255  0.6914539932725372  1.0000
  C   C31       1.0  0.5629744197089445  0.5181701224969616  0.8085460069252074  1.0000
  C   C32       1.0  0.9370255796839512  0.48182987704790414  0.30854600685929257  1.0000
  C   C33       1.0  0.32985537919661484  0.7327966704095115  0.3337466686307887  1.0000
  C   C34       1.0  0.17014462110205203  0.26720332998181734  0.8337466686967036  1.0000
  C   C35       1.0  0.8298553794952817  0.7672033301774818  0.666253331116723  1.0000
  C   C36       1.0  0.6701446214007188  0.2327966702138471  0.16625333105080822  1.0000
  C   C37       1.0  0.7938697803132836  0.818511805038846  0.4071845029838895  1.0000
  C   C38       1.0  0.706130219079612  0.18148819450601972  0.9071845030498044  1.0000
  C   C39       1.0  0.2938697800146167  0.6814881947016841  0.5928154967636223  1.0000
  C   C40       1.0  0.20613021878094517  0.31851180484318165  0.09281549669770744  1.0000
  C   C41       1.0  0.7673775904637475  0.8608401154121675  0.20818394957591016  1.0000
  C   C42       1.0  0.732622408929148  0.13915988413269825  0.7081839496418251  1.0000
  C   C43       1.0  0.2673775901650808  0.6391598843283627  0.7918160501716016  1.0000
  C   C44       1.0  0.2326224101335861  0.3608401160629662  0.2918160504900047  1.0000
  C   C45       1.0  0.07373621331760763  0.8205428939511112  0.2800999151446994  1.0000
  C   C46       1.0  0.4262637854779543  0.17945710559375444  0.7800999152106143  1.0000
  C   C47       1.0  0.5737362136162745  0.6794571057894188  0.7199000849871304  1.0000
  C   C48       1.0  0.9262637857766212  0.3205428937554469  0.2199000849212155  1.0000
  C   C49       1.0  0.12480563132129312  0.733327610119382  0.4616712368049081  1.0000
  C   C50       1.0  0.37519436897737374  0.2666723902719469  0.9616712364865051  1.0000
  C   C51       1.0  0.6248056316199601  0.7666723896211483  0.5383287633269216  1.0000
  C   C52       1.0  0.8751943692760407  0.23332760992371754  0.03832876326100676  1.0000
  C   C53       1.0  0.9816972840675476  0.6584675090574436  0.4427988407490868  1.0000
  C   C54       1.0  0.518302715325348  0.3415324913338852  0.9427988408150016  1.0000
  C   C55       1.0  0.48169728527198574  0.8415324906830866  0.557201159382743  1.0000
  C   C56       1.0  0.01830271502668113  0.15846750886177918  0.05720115931682806  1.0000
  C   C57       1.0  0.9389828462676398  0.8939793609907425  0.42677324735951583  1.0000
  C   C58       1.0  0.5610171531252557  0.1060206394005864  0.9267732470411127  1.0000
  C   C59       1.0  0.4389828459689731  0.6060206387497877  0.5732267527723138  1.0000
  C   C60       1.0  0.06101715432969377  0.393979360795078  0.07322675270639899  1.0000
  C   C61       1.0  0.10186308990454841  0.8505613335676655  0.45370677539639076  1.0000
  C   C62       1.0  0.3981369088910135  0.14943866682366333  0.9537067754623056  1.0000
  C   C63       1.0  0.6018630902032153  0.6494386670193277  0.546293224351121  1.0000
  C   C64       1.0  0.8981369091896804  0.350561333372001  0.046293224669524125  1.0000
  C   C65       1.0  0.543894931618772  0.20265252829638197  0.40806095470947595  1.0000
  C   C66       1.0  0.9561050677741236  0.7973474720949467  0.9080609547753907  1.0000
  C   C67       1.0  0.04389493132010522  0.2973474718992824  0.5919390454223538  1.0000
  C   C68       1.0  0.4561050674754567  0.7026525276455833  0.09193904535643892  1.0000
  C   C69       1.0  0.3615131920630524  0.12827078127438288  0.4190976220399491  1.0000
  C   C70       1.0  0.1384868082356145  0.871729219116946  0.9190976221058639  1.0000
  C   C71       1.0  0.8615131908586143  0.37172921892128147  0.5809023780918806  1.0000
  C   C72       1.0  0.6384868085342813  0.6282707806235842  0.08090237802596578  1.0000
  C   C73       1.0  0.6406489453139489  0.24856828785549745  0.4566586755752182  1.0000
  C   C74       1.0  0.8593510540789466  0.7514317116893684  0.956658675256815  1.0000
  C   C75       1.0  0.14064894501528208  0.251431712340167  0.5433413245566115  1.0000
  C   C76       1.0  0.35935105378027987  0.7485682880511618  0.04334132449069668  1.0000
  N   N1        1.0  0.8898865090146295  0.9595537921240422  0.2271898403988176  1.0000
  N   N2        1.0  0.6101134903782661  0.04044620742082357  0.7271898404647325  1.0000
  N   N3        1.0  0.3898865087159627  0.540446207616488  0.7728101597330121  1.0000
  N   N4        1.0  0.11011349158270421  0.4595537919283778  0.27281015966709726  1.0000
  N   N5        1.0  0.25614346507333285  0.8265564323341176  0.3105538218839198  1.0000
  N   N6        1.0  0.2438565337222291  0.17344356805721114  0.8105538219498346  1.0000
  N   N7        1.0  0.7561434653719996  0.6734435682528755  0.68944617824791  1.0000
  N   N8        1.0  0.7438565340208959  0.32655643213845326  0.18944617818199508  1.0000
  O   O1        1.0  0.24792118648844885  0.6377645314827032  0.3303447198155794  1.0000
  O   O2        1.0  0.252078813810218  0.3622354680621625  0.8303447198814943  1.0000
  O   O3        1.0  0.7479211867871157  0.8622354682578269  0.6696552799319324  1.0000
  O   O4        1.0  0.7520788141088849  0.13776453128703883  0.16965528025033547  1.0000
  O   O5        1.0  0.6966408651242556  0.14073820927566622  0.3808785400519001  1.0000
  O   O6        1.0  0.80335913426864  0.8592617902691996  0.880878539733497  1.0000
  O   O7        1.0  0.1966408648255888  0.3592617900735351  0.6191214600799296  1.0000
  O   O8        1.0  0.30335913396997316  0.6407382094713306  0.11912146001401476  1.0000
  S   S1        1.0  0.6198924610887546  0.6229472289699158  0.3889431162905651  1.0000
  S   S2        1.0  0.8801075398072459  0.37705277057495  0.888943115972162  1.0000
  S   S3        1.0  0.11989246079008781  0.8770527707706145  0.6110568838412646  1.0000
  S   S4        1.0  0.380107539508579  0.12294722962071439  0.11105688377534975  1.0000
  Cl  Cl1       1.0  0.008883184804716301  0.5139709988029525  0.4524137860237873  1.0000
  Cl  Cl2       1.0  0.49111681549395053  0.4860290015883763  0.9524137860897021  1.0000
  Cl  Cl3       1.0  0.5088831851033832  0.9860290017840407  0.5475862141080424  1.0000
  Cl  Cl4       1.0  0.9911168157926175  0.013970998607288069  0.047586214042127574  1.0000
  Cl  Cl5       1.0  0.48848882891833045  0.05797687852922994  0.2808760010805064  1.0000
  Cl  Cl6       1.0  0.011511171380336398  0.9420231210156358  0.7808760011464213  1.0000
  Cl  Cl7       1.0  0.9884888292169973  0.4420231208199714  0.7191239986670053  1.0000
  Cl  Cl8       1.0  0.5115111701758983  0.5579768787248943  0.21912399898540844  1.0000
