data_image0
_chemical_formula_structural       H112C80N8O8S4Cl8
_chemical_formula_sum              "H112 C80 N8 O8 S4 Cl8"
_cell_length_a       6.667382451157693
_cell_length_b       11.937038767245632
_cell_length_c       25.8329632505034
_cell_angle_alpha    90.0
_cell_angle_beta     90.0
_cell_angle_gamma    90.0

_space_group_name_H-M_alt    "P 1"
_space_group_IT_number       1

loop_
  _space_group_symop_operation_xyz
  'x, y, z'

loop_
  _atom_site_type_symbol
  _atom_site_label
  _atom_site_symmetry_multiplicity
  _atom_site_fract_x
  _atom_site_fract_y
  _atom_site_fract_z
  _atom_site_occupancy
  H   H1        1.0  0.8072639134515879  0.049823952288062606  0.2261956537210702  1.0000
  H   H2        1.0  0.6927360870378786  0.9501760479426786  0.726195653904878  1.0000
  H   H3        1.0  0.3072639127884861  0.45017604824617236  0.773804346259443  1.0000
  H   H4        1.0  0.1927360863747768  0.5498239519845689  0.2738043460756352  1.0000
  H   H5        1.0  0.8328470176532049  0.7061318761172917  0.21352844373718952  1.0000
  H   H6        1.0  0.6671529813364225  0.2938681241134497  0.7135284439209972  1.0000
  H   H7        1.0  0.3328470184899421  0.793868123809956  0.7864715562433237  1.0000
  H   H8        1.0  0.16715298217315974  0.20613187642078531  0.2864715560595159  1.0000
  H   H9        1.0  0.9281397752915013  0.7656069112447695  0.15616849646241743  1.0000
  H   H10       1.0  0.5718602236981263  0.23439308898597175  0.6561684962591229  1.0000
  H   H11       1.0  0.4281397761282384  0.7343930895202068  0.8438315035180958  1.0000
  H   H12       1.0  0.07186022453486343  0.26560691071053455  0.3438315037213904  1.0000
  H   H13       1.0  0.20547281786154709  0.7273263729211565  0.22229234386760094  1.0000
  H   H14       1.0  0.2945271813017158  0.2726736273095847  0.7222923440514086  1.0000
  H   H15       1.0  0.7054728185246489  0.772673627006091  0.7777076561129121  1.0000
  H   H16       1.0  0.7945271819648176  0.2273263723869216  0.2777076559291045  1.0000
  H   H17       1.0  0.8473617977350338  0.9602606034465372  0.30613789960181553  1.0000
  H   H18       1.0  0.6526382027544325  0.03973939678420404  0.8061378993985209  1.0000
  H   H19       1.0  0.34736179857177113  0.5397393964807103  0.6938621003786977  1.0000
  H   H20       1.0  0.15263820209133072  0.46026060375003097  0.19386210058199227  1.0000
  H   H21       1.0  0.08205842157817143  0.021776620237950423  0.2889767185285849  1.0000
  H   H22       1.0  0.41794157908493035  0.9782233799927909  0.7889767187123926  1.0000
  H   H23       1.0  0.5820584207414343  0.47822337945855586  0.7110232814519282  1.0000
  H   H24       1.0  0.9179415797480323  0.5217766199344568  0.2110232812681205  1.0000
  H   H25       1.0  0.2564762697395706  0.8706241089303272  0.1544816388775002  1.0000
  H   H26       1.0  0.24352373092353122  0.1293758904626854  0.654481639061308  1.0000
  H   H27       1.0  0.7564762689028335  0.6293758909969204  0.8455183611030129  1.0000
  H   H28       1.0  0.743523730086794  0.37062410923382094  0.3455183613063076  1.0000
  H   H29       1.0  0.35212410675382033  0.9243706973857854  0.21352229384263582  1.0000
  H   H30       1.0  0.14787589390928146  0.07562930284495599  0.7135222940264435  1.0000
  H   H31       1.0  0.8521241074169221  0.5756293025414623  0.7864777061378774  1.0000
  H   H32       1.0  0.6478758930725442  0.4243706968515503  0.28647770595406963  1.0000
  H   H33       1.0  0.5965290680616953  0.9354413048100161  0.36632799025932844  1.0000
  H   H34       1.0  0.9034709324277712  0.06455869542072522  0.8663279904431361  1.0000
  H   H35       1.0  0.09652906739859343  0.5645586951172314  0.6336720097211848  1.0000
  H   H36       1.0  0.4034709317646694  0.4354413051135098  0.13367200953737698  1.0000
  H   H37       1.0  0.14172761303589582  0.07659870155644816  0.20166676116409063  1.0000
  H   H38       1.0  0.35827238612736706  0.9234012986742931  0.7016667609607962  1.0000
  H   H39       1.0  0.6417276136989976  0.42340129897778683  0.7983332388164226  1.0000
  H   H40       1.0  0.8582723867904689  0.5765987012529544  0.29833323901971714  1.0000
  H   H41       1.0  0.004695607343563129  0.009512492353763287  0.15153302321690557  1.0000
  H   H42       1.0  0.49530439331953874  0.9904875070392493  0.6515330230136109  1.0000
  H   H43       1.0  0.504695606506826  0.490487507342743  0.8484669767636076  1.0000
  H   H44       1.0  0.9953043924828014  0.5095124928879983  0.34846697696690215  1.0000
  H   H45       1.0  0.6951488284874421  0.9129099295464959  0.17215902360381885  1.0000
  H   H46       1.0  0.8048511705021855  0.08709007068424543  0.6721590237876266  1.0000
  H   H47       1.0  0.19514882932417918  0.5870900703807517  0.8278409763766943  1.0000
  H   H48       1.0  0.30485117133892264  0.4129099298499896  0.32784097619288655  1.0000
  H   H49       1.0  0.6579851976600285  0.8677596857960217  0.23702681611180165  1.0000
  H   H50       1.0  0.842014801329599  0.1322403144347196  0.7370268162956095  1.0000
  H   H51       1.0  0.15798519849676565  0.6322403141312258  0.7629731838687116  1.0000
  H   H52       1.0  0.3420148021663362  0.3677596860995154  0.2629731836849038  1.0000
  H   H53       1.0  0.978336861247158  0.7772762995006094  0.2981725725890118  1.0000
  H   H54       1.0  0.5216631392423086  0.2227236998924033  0.7981725723857173  1.0000
  H   H55       1.0  0.47833686058405617  0.7227237004266384  0.7018274273915013  1.0000
  H   H56       1.0  0.02166313857920671  0.277276299804103  0.20182742759479597  1.0000
  H   H57       1.0  0.2444698623396021  0.6845542357139813  0.48326084231768207  1.0000
  H   H58       1.0  0.25553013832349974  0.31544576451675993  0.9832608421143875  1.0000
  H   H59       1.0  0.7444698615028649  0.8154457642132662  0.5167391576628312  1.0000
  H   H60       1.0  0.7555301389866016  0.18455423517974634  0.016739157866125693  1.0000
  H   H61       1.0  0.9535037725181245  0.9764683190929733  0.4174481651767091  1.0000
  H   H62       1.0  0.546496227971342  0.023531680300039347  0.9174481649734145  1.0000
  H   H63       1.0  0.4535037718550226  0.5235316808342744  0.5825518348038041  1.0000
  H   H64       1.0  0.046496227308240226  0.476468319396467  0.08255183500709866  1.0000
  H   H65       1.0  0.23667961626020081  0.8898995426862563  0.46713730798052533  1.0000
  H   H66       1.0  0.26332038440290095  0.11010045754448507  0.9671373077772307  1.0000
  H   H67       1.0  0.7366796154234637  0.6101004572409914  0.5328626919999879  1.0000
  H   H68       1.0  0.7633203835661638  0.3898995421520212  0.03286269220328244  1.0000
  H   H69       1.0  0.3446435789206915  0.9153222866278028  0.3083087930241528  1.0000
  H   H70       1.0  0.15535642024257137  0.08467771360293853  0.8083087932079607  1.0000
  H   H71       1.0  0.8446435795837933  0.5846777132994448  0.6916912069563603  1.0000
  H   H72       1.0  0.6553564209056731  0.41532228693129647  0.1916912067725526  1.0000
  H   H73       1.0  0.6613360523865518  0.11708408821080613  0.34570005823183964  1.0000
  H   H74       1.0  0.8386639481029148  0.8829159120199351  0.845700058028545  1.0000
  H   H75       1.0  0.1613360532232889  0.38291591148570014  0.6542999417486735  1.0000
  H   H76       1.0  0.33866394743981293  0.6170840879073124  0.15429994195196808  1.0000
  H   H77       1.0  0.787062555424404  0.268371876180075  0.41133374545380247  1.0000
  H   H78       1.0  0.7129374450650625  0.7316281232129376  0.9113337456376102  1.0000
  H   H79       1.0  0.2870625547613021  0.2316281235164313  0.5886662545267107  1.0000
  H   H80       1.0  0.21293744440196075  0.76837187671431  0.08866625434290297  1.0000
  H   H81       1.0  0.7127426099840519  0.15637455874918912  0.45252188131271387  1.0000
  H   H82       1.0  0.7872573890055756  0.8436254414815523  0.9525218811094193  1.0000
  H   H83       1.0  0.21274261082078907  0.34362544178504595  0.5474781186677993  1.0000
  H   H84       1.0  0.2872573898423127  0.6563745584456954  0.04747811887109387  1.0000
  H   H85       1.0  0.4487801580184515  0.2623345748522325  0.3694649629408663  1.0000
  H   H86       1.0  0.05121984264465032  0.7376654253785088  0.8694649627375717  1.0000
  H   H87       1.0  0.9487801571817143  0.23766542484427383  0.6305350374267492  1.0000
  H   H88       1.0  0.5512198433077522  0.7623345745487388  0.13053503724294147  1.0000
  H   H89       1.0  0.34955858420800784  0.09470489725659592  0.45581799408051027  1.0000
  H   H90       1.0  0.15044141495525504  0.9052951029741453  0.9558179938772158  1.0000
  H   H91       1.0  0.8495585848711096  0.4052951024399104  0.5441820062871052  1.0000
  H   H92       1.0  0.6504414156183569  0.5947048969531022  0.04418200610329745  1.0000
  H   H93       1.0  0.3398999257356986  0.07007760017462183  0.38792481694118913  1.0000
  H   H94       1.0  0.16010007342756427  0.9299224000561194  0.8879248171249969  1.0000
  H   H95       1.0  0.8398999263988004  0.4299224003596132  0.612075183039324  1.0000
  H   H96       1.0  0.6601000740906661  0.5700775998711282  0.11207518285551624  1.0000
  H   H97       1.0  0.1674682918190966  0.1634618390747033  0.4169475876829619  1.0000
  H   H98       1.0  0.33253170734416626  0.8365381603183093  0.9169475874796673  1.0000
  H   H99       1.0  0.6674682924821984  0.33653816062180303  0.5830524126846536  1.0000
  H   H100      1.0  0.8325317080072681  0.6634618396089382  0.08305241250084584  1.0000
  H   H101      1.0  0.2783842360321953  0.3587138706250537  0.44405768237898374  1.0000
  H   H102      1.0  0.22161576463090651  0.6412861287679589  0.9440576821756892  1.0000
  H   H103      1.0  0.7783842351954581  0.14128612907145263  0.5559423179886317  1.0000
  H   H104      1.0  0.7216157652940084  0.8587138711592888  0.05594231780482398  1.0000
  H   H105      1.0  0.533103591407574  0.399223708067056  0.439069172979177  1.0000
  H   H106      1.0  0.9668964090818924  0.6007762921636853  0.9390691731629847  1.0000
  H   H107      1.0  0.033103592244311135  0.10077629246717903  0.5609308270013362  1.0000
  H   H108      1.0  0.46689640841879065  0.8992237077635623  0.06093082681752846  1.0000
  H   H109      1.0  0.4584840681321972  0.3017835637666462  0.48719989139282127  1.0000
  H   H110      1.0  0.04151593103106562  0.6982164364640951  0.9871998911895267  1.0000
  H   H111      1.0  0.958484068795299  0.1982164359298601  0.512800108587692  1.0000
  H   H112      1.0  0.5415159316941675  0.8017835634631526  0.012800108790986508  1.0000
  C   C1        1.0  0.5118700966985045  0.7585230287468734  0.3646910119696165  1.0000
  C   C2        1.0  0.988129903790962  0.24147697148386799  0.8646910117663219  1.0000
  C   C3        1.0  0.01187009603540263  0.7414769711803744  0.635308988397999  1.0000
  C   C4        1.0  0.48812990312786025  0.25852302821263834  0.1353089882141912  1.0000
  C   C5        1.0  0.9068922075934158  0.7807544653011531  0.19771594572684065  1.0000
  C   C6        1.0  0.5931077928960506  0.21924553492958812  0.6977159459106483  1.0000
  C   C7        1.0  0.40689220693031397  0.7192455346260944  0.8022840542536726  1.0000
  C   C8        1.0  0.09310779223294889  0.2807544656046469  0.3022840540698648  1.0000
  C   C9        1.0  0.11147031169195215  0.8027362804829887  0.22278038002039321  1.0000
  C   C10       1.0  0.3885296889711497  0.19726371891002387  0.7227803802042009  1.0000
  C   C11       1.0  0.6114703108552151  0.6972637194442589  0.77721961996012  1.0000
  C   C12       1.0  0.8885296881344125  0.30273628078648246  0.27721961977631226  1.0000
  C   C13       1.0  0.8064255844610213  0.7007914720821701  0.4162189616319171  1.0000
  C   C14       1.0  0.6935744145286061  0.2992085281485712  0.9162189618157248  1.0000
  C   C15       1.0  0.30642558529775854  0.7992085286828062  0.5837810383485961  1.0000
  C   C16       1.0  0.1935744153653433  0.20079147154793514  0.08378103816478834  1.0000
  C   C17       1.0  0.9745110930109934  0.9552599704450099  0.27955034929487904  1.0000
  C   C18       1.0  0.5254889059786341  0.0447400297857314  0.7795503494786868  1.0000
  C   C19       1.0  0.47451109384773055  0.5447400294822377  0.7204496506856342  1.0000
  C   C20       1.0  0.025488906815371252  0.45525997074850366  0.2204496505018264  1.0000
  C   C21       1.0  0.21485056849427756  0.8982599938790463  0.19349191695623985  1.0000
  C   C22       1.0  0.28514943216882427  0.10174000551396628  0.6934919167529453  1.0000
  C   C23       1.0  0.7148505676575404  0.6017400060482013  0.8065080830242733  1.0000
  C   C24       1.0  0.7851494328319262  0.39825999418254  0.3065080832275679  1.0000
  C   C25       1.0  0.6291483473055666  0.8490742199657498  0.3770696600131688  1.0000
  C   C26       1.0  0.8708516531839  0.15092577942726285  0.8770696598098742  1.0000
  C   C27       1.0  0.12914834814230372  0.6509257799614978  0.6229303399673444  1.0000
  C   C28       1.0  0.3708516525207981  0.3490742202692434  0.12293034017063903  1.0000
  C   C29       1.0  0.07041293692676703  0.9980626839121033  0.18992412145766482  1.0000
  C   C30       1.0  0.42958706223649584  0.0019373163186380503  0.6899241212543702  1.0000
  C   C31       1.0  0.5704129375898688  0.5019373160151444  0.8100758785228483  1.0000
  C   C32       1.0  0.9295870628995977  0.49806268421559696  0.31007587872614295  1.0000
  C   C33       1.0  0.32678379348430575  0.7498739012695214  0.3338209417315667  1.0000
  C   C34       1.0  0.17321620717879604  0.25012609896121996  0.8338209415282721  1.0000
  C   C35       1.0  0.8267837941474077  0.7501260986577262  0.6661790582489464  1.0000
  C   C36       1.0  0.6732162063420589  0.24987390157301503  0.16617905845224107  1.0000
  C   C37       1.0  0.8020268777399291  0.8184454696425769  0.4066007615210507  1.0000
  C   C38       1.0  0.6979731227495374  0.1815545305881643  0.9066007613177561  1.0000
  C   C39       1.0  0.3020268770768273  0.6815545311223994  0.5933992384594625  1.0000
  C   C40       1.0  0.19797312208643558  0.318445469108342  0.09339923866275707  1.0000
  C   C41       1.0  0.771259740635865  0.8828333965804526  0.20709669766188155  1.0000
  C   C42       1.0  0.7287402598536015  0.11716660365028872  0.7070966978456894  1.0000
  C   C43       1.0  0.27125973997276315  0.617166603346795  0.7929033023186317  1.0000
  C   C44       1.0  0.2287402591904997  0.38283339604621763  0.2929033021348239  1.0000
  C   C45       1.0  0.07632455521006443  0.8392824573452978  0.2794559458779597  1.0000
  C   C46       1.0  0.42367544395319845  0.16071754204771468  0.7794559460617675  1.0000
  C   C47       1.0  0.5763245558731662  0.6607175425819497  0.7205440541025534  1.0000
  C   C48       1.0  0.9236754446163001  0.33928245764879167  0.2205440543058481  1.0000
  C   C49       1.0  0.11980713208694067  0.7218327767890959  0.46219479485255455  1.0000
  C   C50       1.0  0.38019286707632216  0.27816722344164546  0.9621947950363622  1.0000
  C   C51       1.0  0.6198071327500424  0.7781672231381518  0.5378052051279587  1.0000
  C   C52       1.0  0.880192867739424  0.22183277709258953  0.03780520494415091  1.0000
  C   C53       1.0  0.9661769933238888  0.6540550761570081  0.44389780176598753  1.0000
  C   C54       1.0  0.5338230071655776  0.3459449240737332  0.9438978019497952  1.0000
  C   C55       1.0  0.46617699416062597  0.8459449237702396  0.5561021982145257  1.0000
  C   C56       1.0  0.03382300650247585  0.1540550764605018  0.056102198030717906  1.0000
  C   C57       1.0  0.9581311116914821  0.886853284672939  0.42538808705137066  1.0000
  C   C58       1.0  0.5418688872981453  0.11314671472007355  0.925388086848076  1.0000
  C   C59       1.0  0.45813111252821936  0.6131467152543085  0.5746119129291425  1.0000
  C   C60       1.0  0.04186888813488248  0.3868532849764328  0.0746119131324371  1.0000
  C   C61       1.0  0.1143034550039456  0.8380238839006658  0.45280942672235075  1.0000
  C   C62       1.0  0.3856965456591562  0.16197611633007555  0.9528094265190562  1.0000
  C   C63       1.0  0.6143034556670475  0.6619761160265818  0.5471905732581624  1.0000
  C   C64       1.0  0.885696544822419  0.33802388420415946  0.04719057346145701  1.0000
  C   C65       1.0  0.6886095395956777  0.19371040549393725  0.4139469226315575  1.0000
  C   C66       1.0  0.8113904608937889  0.8062895947368041  0.913946922428263  1.0000
  C   C67       1.0  0.18860954043241482  0.30628959504029774  0.5860530773489556  1.0000
  C   C68       1.0  0.311390460230687  0.6937104051904436  0.08605307755225025  1.0000
  C   C69       1.0  0.47012222906993173  0.23124032465858538  0.4093696471229998  1.0000
  C   C70       1.0  0.029877771593170076  0.7687596747344272  0.9093696473068076  1.0000
  C   C71       1.0  0.9701222297330335  0.2687596750379209  0.5906303528575133  1.0000
  C   C72       1.0  0.5298777707564329  0.7312403251928205  0.09063035267370563  1.0000
  C   C73       1.0  0.32373495983048256  0.13438839072901454  0.4179888042766284  1.0000
  C   C74       1.0  0.17626503933278032  0.8656116086639981  0.9179888040733338  1.0000
  C   C75       1.0  0.8237349604935844  0.36561160896749173  0.5820111960909872  1.0000
  C   C76       1.0  0.6762650399958821  0.6343883912632495  0.08201119590717938  1.0000
  C   C77       1.0  0.4331530628633043  0.32799307150976215  0.44688146605771367  1.0000
  C   C78       1.0  0.06684693779979754  0.6720069287209791  0.9468814662415214  1.0000
  C   C79       1.0  0.9331530620265671  0.17200692818674412  0.5531185339227995  1.0000
  C   C80       1.0  0.5668469369630603  0.8279930720439972  0.053118533738991794  1.0000
  N   N1        1.0  0.8976644168598398  0.9787284441144342  0.2261989320906161  1.0000
  N   N2        1.0  0.6023355836296267  0.021271555278578495  0.7261989318873215  1.0000
  N   N3        1.0  0.397664416196738  0.5212715558128135  0.7738010678898971  1.0000
  N   N4        1.0  0.10233558296652487  0.4787284444179278  0.27380106809319166  1.0000
  N   N5        1.0  0.2592183323306892  0.8433628286123873  0.30990350864390265  1.0000
  N   N6        1.0  0.24078166833241263  0.15663717161835408  0.8099035088277103  1.0000
  N   N7        1.0  0.7592183314939521  0.6566371713148604  0.6900964913366106  1.0000
  N   N8        1.0  0.7407816689955145  0.3433628289158809  0.1900964911528028  1.0000
  O   O1        1.0  0.23760804807663655  0.6576954404757734  0.3308471222260361  1.0000
  O   O2        1.0  0.26239195108662633  0.3423045597549678  0.8308471224098439  1.0000
  O   O3        1.0  0.7376080487397384  0.8423045594514742  0.669152877754477  1.0000
  O   O4        1.0  0.7623919517497282  0.15769544077926717  0.16915287757066924  1.0000
  O   O5        1.0  0.7498407083475337  0.11275516535082589  0.3765405074003831  1.0000
  O   O6        1.0  0.7501592921419329  0.8872448340421867  0.8765405075841908  1.0000
  O   O7        1.0  0.24984070768443187  0.3872448343456804  0.6234594925801301  1.0000
  O   O8        1.0  0.250159291478831  0.6127551658850608  0.12345949239632237  1.0000
  S   S1        1.0  0.6015170615124423  0.6327117501472872  0.3900295812871432  1.0000
  S   S2        1.0  0.8984829374771853  0.3672882492457254  0.890029581470951  1.0000
  S   S3        1.0  0.10151706234917938  0.8672882497799604  0.60997041869337  1.0000
  S   S4        1.0  0.39848293831392245  0.13271175045078093  0.10997041850956223  1.0000
  Cl  Cl1       1.0  0.9706621942582986  0.5105131129105096  0.45461397192871966  1.0000
  Cl  Cl2       1.0  0.5293378062311679  0.4894868873202317  0.9546139717254251  1.0000
  Cl  Cl3       1.0  0.4706621935951968  0.9894868870167379  0.5453860280517935  1.0000
  Cl  Cl4       1.0  0.02933780706790501  0.01051311237627462  0.0453860282550881  1.0000
  Cl  Cl5       1.0  0.48937415003596424  0.07743067087427015  0.27968405985554934  1.0000
  Cl  Cl6       1.0  0.01062585062713757  0.9225693293564712  0.7796840596522547  1.0000
  Cl  Cl7       1.0  0.9893741491992271  0.42256932965996485  0.7203159401249638  1.0000
  Cl  Cl8       1.0  0.5106258497904005  0.5774306705707765  0.2203159403282584  1.0000
