data_image0
_chemical_formula_structural       H36C36N4O16
_chemical_formula_sum              "H36 C36 N4 O16"
_cell_length_a       18.388854164026924
_cell_length_b       5.430469085104456
_cell_length_c       8.494130167276543
_cell_angle_alpha    90.0
_cell_angle_beta     104.00071464628009
_cell_angle_gamma    90.0

_space_group_name_H-M_alt    "P 1"
_space_group_IT_number       1

loop_
  _space_group_symop_operation_xyz
  'x, y, z'

loop_
  _atom_site_type_symbol
  _atom_site_label
  _atom_site_symmetry_multiplicity
  _atom_site_fract_x
  _atom_site_fract_y
  _atom_site_fract_z
  _atom_site_occupancy
  H   H1        1.0  0.5922547938010877  0.61642014115906  0.21814175481542183  1.0000
  H   H2        1.0  0.9077452064560085  0.11642014162904293  0.7818582459041802  1.0000
  H   H3        1.0  0.4077452059828262  0.3835798579009741  0.78185824526884  1.0000
  H   H4        1.0  0.09225479388836243  0.8835798592724526  0.21814175447264694  1.0000
  H   H5        1.0  0.6272597308799869  0.42670430190938624  0.08553519874959921  1.0000
  H   H6        1.0  0.8727402693766431  0.9267043032808647  0.9144648007924753  1.0000
  H   H7        1.0  0.3727402694643843  0.5732956971506479  0.9144648016272279  1.0000
  H   H8        1.0  0.1272597304068044  0.07329569762063083  0.08553519811425898  1.0000
  H   H9        1.0  0.4169996958538813  0.18238060552018578  0.05530017491117872  1.0000
  H   H10       1.0  0.08300030401730733  0.6823806050502028  0.9446998248303081  1.0000
  H   H11       1.0  0.5830003039300327  0.8176193953813099  0.9446998251730832  1.0000
  H   H12       1.0  0.9169996957666066  0.3176193958512928  0.055300175253953546  1.0000
  H   H13       1.0  0.1697495816123265  0.42728842456072413  0.21746932780553177  1.0000
  H   H14       1.0  0.3302504182588621  0.9272884240907412  0.7825306719359552  1.0000
  H   H15       1.0  0.8302504181715875  0.5727115744993099  0.7825306722787301  1.0000
  H   H16       1.0  0.6697495815250518  0.07271157496929288  0.21746932814830666  1.0000
  H   H17       1.0  0.22785964721077326  0.10391811851906439  0.4136791097537074  1.0000
  H   H18       1.0  0.2721403526604154  0.603918119890543  0.5863208899877793  1.0000
  H   H19       1.0  0.7721403525731407  0.8960818805409696  0.5863208903305545  1.0000
  H   H20       1.0  0.7278596471234986  0.3960818810109526  0.41367911009648234  1.0000
  H   H21       1.0  0.3659872646596043  0.10188586866605048  0.532967179484854  1.0000
  H   H22       1.0  0.13401273521158433  0.6018858700375291  0.46703282025663306  1.0000
  H   H23       1.0  0.6340127351243097  0.8981141303939836  0.46703282059940787  1.0000
  H   H24       1.0  0.8659872645723297  0.3981141308639665  0.5329671798276288  1.0000
  H   H25       1.0  0.44496154664577287  0.42896748393056944  0.45437029498952847  1.0000
  H   H26       1.0  0.05503845322541585  0.9289674834605864  0.5456297047519584  1.0000
  H   H27       1.0  0.5550384531376746  0.5710325169709262  0.5456297039172058  1.0000
  H   H28       1.0  0.9449615465584982  0.07103251559944755  0.45437029533230333  1.0000
  H   H29       1.0  0.28074954802335095  0.8833599151053315  0.08849582177091286  1.0000
  H   H30       1.0  0.2192504518478377  0.38335991557531457  0.911504177970574  1.0000
  H   H31       1.0  0.719250451760563  0.11664008579616401  0.911504178313349  1.0000
  H   H32       1.0  0.7807495479360763  0.616640085326181  0.08849582211368778  1.0000
  H   H33       1.0  0.49662660644271583  0.9604334871008068  0.27510543954799666  1.0000
  H   H34       1.0  0.00337339398893001  0.4604334875707896  0.7248945604860555  1.0000
  H   H35       1.0  0.5033733939016554  0.03956651380068892  0.7248945608288304  1.0000
  H   H36       1.0  0.9966266063554411  0.5395665133307059  0.2751054398907716  1.0000
  C   C1        1.0  0.5759698050860856  0.5149680526993017  0.10265978530398595  1.0000
  C   C2        1.0  0.9240301951705443  0.014968053169284637  0.8973402142380886  1.0000
  C   C3        1.0  0.424030195257819  0.485031948202194  0.8973402138953136  1.0000
  C   C4        1.0  0.0759698051738268  0.9850319477322109  0.10265978613873854  1.0000
  C   C5        1.0  0.5219534517583198  0.3180591810636883  0.12511442756965233  1.0000
  C   C6        1.0  0.9780465484987767  0.8180591805937053  0.8748855731499497  1.0000
  C   C7        1.0  0.47804654858605133  0.6819408198378073  0.8748855728071748  1.0000
  C   C8        1.0  0.02195345184559446  0.18194082030779027  0.1251144272268774  1.0000
  C   C9        1.0  0.3528233219960613  0.6090240139791503  0.28890375956982595  1.0000
  C   C10       1.0  0.1471766778751273  0.10902401260767176  0.711096240171661  1.0000
  C   C11       1.0  0.6471766777878526  0.39097598692234525  0.711096240514436  1.0000
  C   C12       1.0  0.8528233224692437  0.8909759864523623  0.28890376020516617  1.0000
  C   C13       1.0  0.2742352312164099  0.6064474722880506  0.22001090427256945  1.0000
  C   C14       1.0  0.2257647686547788  0.10644747275803355  0.7799890954689175  1.0000
  C   C15       1.0  0.725764768567504  0.3935525267719835  0.7799890958116923  1.0000
  C   C16       1.0  0.7742352316891259  0.8935525281434621  0.22001090373038223  1.0000
  C   C17       1.0  0.23009549519921918  0.4239255069722432  0.26766609911689  1.0000
  C   C18       1.0  0.269904504672436  0.9239255065022601  0.7323339018021244  1.0000
  C   C19       1.0  0.7699045045846948  0.5760744939292524  0.7323339009673718  1.0000
  C   C20       1.0  0.730095495111478  0.07607449255777386  0.2676660982821374  1.0000
  C   C21       1.0  0.2630848298258443  0.24498014060131793  0.3786661915923658  1.0000
  C   C22       1.0  0.2369151706058015  0.7449801401313348  0.6213338084416864  1.0000
  C   C23       1.0  0.7369151705180602  0.7550198584587161  0.6213338076069338  1.0000
  C   C24       1.0  0.7630848297385696  0.2550198589286991  0.37866619193514073  1.0000
  C   C25       1.0  0.34072716981437956  0.24451636114497072  0.4468246767560435  1.0000
  C   C26       1.0  0.15927283005680914  0.7445163625164493  0.5531753229854434  1.0000
  C   C27       1.0  0.6592728299695344  0.7554836379150632  0.5531753233282183  1.0000
  C   C28       1.0  0.8407271697266383  0.2554836383850463  0.4468246759212909  1.0000
  C   C29       1.0  0.3847793816600028  0.4267828494516547  0.4026362494636808  1.0000
  C   C30       1.0  0.11522061877210951  0.9267828508231333  0.5973637517478989  1.0000
  C   C31       1.0  0.6152206186843683  0.5732171496083793  0.5973637509131464  1.0000
  C   C32       1.0  0.8847793815722615  0.07321715007836234  0.40263624862892816  1.0000
  C   C33       1.0  0.3985873709209353  0.798735581038036  0.2375842815366768  1.0000
  C   C34       1.0  0.10141262895025331  0.29873558150801904  0.7624157182048101  1.0000
  C   C35       1.0  0.6014126288629786  0.20126441802199796  0.7624157185475849  1.0000
  C   C36       1.0  0.8985873708336607  0.701264417552015  0.2375842818794517  1.0000
  N   N1        1.0  0.4529801765519889  0.3165820029646539  0.030076730926595525  1.0000
  N   N2        1.0  0.04701982331919977  0.8165820024946708  0.9699232688148915  1.0000
  N   N3        1.0  0.5470198232314586  0.6834179960953801  0.9699232679801388  1.0000
  N   N4        1.0  0.9529801764647142  0.18341799656536317  0.030076731269370424  1.0000
  O   O1        1.0  0.5446114876791318  0.16238013994384767  0.2368974146578451  1.0000
  O   O2        1.0  0.9553885125779646  0.6623801394738646  0.763102586061757  1.0000
  O   O3        1.0  0.45538851266523933  0.8376198591161864  0.763102585718982  1.0000
  O   O4        1.0  0.044611487766406464  0.33761985958616936  0.23689741431507022  1.0000
  O   O5        1.0  0.37040970186728794  0.9424253337594607  0.12202453518168617  1.0000
  O   O6        1.0  0.12959029800390073  0.4424253342294436  0.8779754645598007  1.0000
  O   O7        1.0  0.6295902979166261  0.05757466530057338  0.8779754649025757  1.0000
  O   O8        1.0  0.8704097017795468  0.5575746666720519  0.1220245343469336  1.0000
  O   O9        1.0  0.4698844245825652  0.8103509017426538  0.31525049809078903  1.0000
  O   O10       1.0  0.030115575849080596  0.3103509003711752  0.6847495019432632  1.0000
  O   O11       1.0  0.5301155757618058  0.18964909915884182  0.684749502286038  1.0000
  O   O12       1.0  0.9698844244952904  0.6896490986888588  0.3152504984335639  1.0000
  O   O13       1.0  0.23983874496392155  0.7744519753433241  0.10976682573848984  1.0000
  O   O14       1.0  0.2601612554677243  0.2744519758133071  0.8902331742955625  1.0000
  O   O15       1.0  0.7601612553804495  0.22554802371670996  0.8902331746383373  1.0000
  O   O16       1.0  0.7398387448766469  0.7255480250881885  0.1097668260812648  1.0000
