data_image0
_chemical_formula_structural       H108C144O32
_chemical_formula_sum              "H108 C144 O32"
_cell_length_a       12.493825350856355
_cell_length_b       18.143666185901242
_cell_length_c       13.363024690939097
_cell_angle_alpha    90.00004641635076
_cell_angle_beta     96.82179227174946
_cell_angle_gamma    90.00003438826423

_space_group_name_H-M_alt    "P 1"
_space_group_IT_number       1

loop_
  _space_group_symop_operation_xyz
  'x, y, z'

loop_
  _atom_site_type_symbol
  _atom_site_label
  _atom_site_symmetry_multiplicity
  _atom_site_fract_x
  _atom_site_fract_y
  _atom_site_fract_z
  _atom_site_occupancy
  H   H1        1.0  0.9354080020015134  0.9090118132031088  0.23780191569512982  1.0000
  H   H2        1.0  0.5645913023872756  0.40901198223259755  0.7621974721329986  1.0000
  H   H3        1.0  0.06459186383494679  0.0909880710368506  0.7621983653684945  1.0000
  H   H4        1.0  0.43540844166273496  0.5909866850528293  0.23779978840144167  1.0000
  H   H5        1.0  0.026290240248749076  0.8580729192800406  0.0962437034666942  1.0000
  H   H6        1.0  0.47370974831134927  0.358073293157366  0.9037562445461469  1.0000
  H   H7        1.0  0.9737097050452126  0.1419271137721257  0.9037563388494589  1.0000
  H   H8        1.0  0.5262939243668807  0.6419212090386914  0.09623988556324317  1.0000
  H   H9        1.0  0.3361801050728098  0.8933325413931593  0.2688594768386177  1.0000
  H   H10       1.0  0.1638195760270314  0.3933325423072799  0.7311412094156995  1.0000
  H   H11       1.0  0.6638198860203868  0.10666753354693802  0.7311406507088487  1.0000
  H   H12       1.0  0.8361802334012428  0.6066677740406732  0.2688634003963511  1.0000
  H   H13       1.0  0.24561327766059396  0.9442769669888997  0.4088226655882049  1.0000
  H   H14       1.0  0.25438572777720925  0.444276618795649  0.5911776323739361  1.0000
  H   H15       1.0  0.7543867099347141  0.055723123934779836  0.5911776089871505  1.0000
  H   H16       1.0  0.7456110377811538  0.5557237262114483  0.4088257829283226  1.0000
  H   H17       1.0  0.22195645659348132  0.8070872198937954  0.9514906458366648  1.0000
  H   H18       1.0  0.2780436807684458  0.30708635366029724  0.04851029933192447  1.0000
  H   H19       1.0  0.7780431877871361  0.1929132877042332  0.04850992532825704  1.0000
  H   H20       1.0  0.7219688443055329  0.6928958125522233  0.9514856321920355  1.0000
  H   H21       1.0  0.22388197122747192  0.10323707761131376  0.4071316711858477  1.0000
  H   H22       1.0  0.27611751109188376  0.6032381336486313  0.592869256716758  1.0000
  H   H23       1.0  0.776116693850891  0.896763172044946  0.5928678609730126  1.0000
  H   H24       1.0  0.723882329852241  0.3967619688494195  0.4071314039417807  1.0000
  H   H25       1.0  0.2771235851832149  0.18380256062435463  0.2697685927339128  1.0000
  H   H26       1.0  0.22287607482221505  0.6838026108128304  0.7302327625441095  1.0000
  H   H27       1.0  0.7228739440527354  0.816197095986827  0.7302295325631536  1.0000
  H   H28       1.0  0.7771236003947559  0.3161977826956426  0.26976726730694817  1.0000
  H   H29       1.0  0.9635332814571033  0.15463711929588098  0.10421119302151019  1.0000
  H   H30       1.0  0.5364669995339887  0.6546369402587716  0.8957893654497462  1.0000
  H   H31       1.0  0.036463932792965406  0.8453621614268305  0.895788092629667  1.0000
  H   H32       1.0  0.4635329307907502  0.3453633275861446  0.1042109228789689  1.0000
  H   H33       1.0  0.907384031836187  0.07811918540708276  0.24365511306437507  1.0000
  H   H34       1.0  0.5926151676077136  0.5781194968674382  0.7563455103447019  1.0000
  H   H35       1.0  0.09261343427042688  0.921880072718475  0.7563448796990611  1.0000
  H   H36       1.0  0.4073843919301442  0.4218803113131019  0.24365559455291555  1.0000
  H   H37       1.0  0.1224031242005702  0.2663264103772135  0.9690187937982186  1.0000
  H   H38       1.0  0.37759981153901867  0.7663258512862519  0.030983865347624536  1.0000
  H   H39       1.0  0.8775961544103479  0.7336788840164062  0.030985974731454074  1.0000
  H   H40       1.0  0.6224011589077235  0.23367433223218784  0.9690172735232162  1.0000
  H   H41       1.0  0.8467449778548626  0.8305093988406799  0.4183969637389854  1.0000
  H   H42       1.0  0.6532552319251591  0.3305093420043975  0.5816034201033391  1.0000
  H   H43       1.0  0.1532550393486919  0.16949064247882514  0.581602996877933  1.0000
  H   H44       1.0  0.3467446549331685  0.6694902892548413  0.41839726368740415  1.0000
  H   H45       1.0  0.8475953127316477  0.6933327883049266  0.4196337616227653  1.0000
  H   H46       1.0  0.652404756880371  0.19333259203404596  0.5803662992242249  1.0000
  H   H47       1.0  0.15240467850735215  0.3066673522227738  0.580366287366021  1.0000
  H   H48       1.0  0.34759528823519786  0.8066669267891288  0.41963382692543993  1.0000
  H   H49       1.0  0.17570770012364204  0.6948838331111318  0.5597241059905906  1.0000
  H   H50       1.0  0.32429226119147236  0.19488354280417386  0.44027604719082686  1.0000
  H   H51       1.0  0.8242923305281941  0.3051162247431133  0.44027599383492466  1.0000
  H   H52       1.0  0.6757075525487677  0.805116313326612  0.559723631581179  1.0000
  H   H53       1.0  0.17433126113381728  0.8311823480123469  0.561803038893231  1.0000
  H   H54       1.0  0.32566877493488  0.3311820575951207  0.43819744915394715  1.0000
  H   H55       1.0  0.8256687678766597  0.16881770377918062  0.4381970764624032  1.0000
  H   H56       1.0  0.6743309912930336  0.668817862470062  0.5618030676388139  1.0000
  H   H57       1.0  0.08230937051238704  0.5147663813955909  0.5407620328352685  1.0000
  H   H58       1.0  0.4176905687339523  0.014765915069208855  0.4592380133926736  1.0000
  H   H59       1.0  0.9176912982003771  0.48523378724146005  0.45923877345840536  1.0000
  H   H60       1.0  0.5823088314769501  0.9852339642099208  0.5407611840110496  1.0000
  H   H61       1.0  0.5295384212618209  0.8908032493470165  0.17328837742602962  1.0000
  H   H62       1.0  0.9704609299139582  0.39080300989576366  0.8267114715962096  1.0000
  H   H63       1.0  0.47046087935688935  0.10919703723696104  0.8267114815113109  1.0000
  H   H64       1.0  0.029538802485980658  0.6091969311132246  0.1732885916365533  1.0000
  H   H65       1.0  0.7819385135126542  0.983937228382179  0.38503700920316875  1.0000
  H   H66       1.0  0.718061288124431  0.48393711997643124  0.6149630483275618  1.0000
  H   H67       1.0  0.21806099747194593  0.01606284325080948  0.614962887651028  1.0000
  H   H68       1.0  0.28193963379950815  0.5160629737027312  0.3850355624407164  1.0000
  H   H69       1.0  0.7047758552738678  0.10956830539060536  0.3502233406087025  1.0000
  H   H70       1.0  0.7952246018236343  0.609568228856693  0.6497771634610667  1.0000
  H   H71       1.0  0.2952241022976846  0.8904318152954216  0.6497766028137745  1.0000
  H   H72       1.0  0.20477583066084218  0.39043190891528246  0.35022276910560524  1.0000
  H   H73       1.0  0.5654319106101003  0.19059410599895826  0.2594791316998776  1.0000
  H   H74       1.0  0.9345687334237991  0.6905940086660493  0.7405205425950456  1.0000
  H   H75       1.0  0.4345683009273278  0.8094060532678211  0.7405199475696852  1.0000
  H   H76       1.0  0.06543136499658186  0.3094061114687611  0.25947910014908243  1.0000
  H   H77       1.0  0.40618469977246946  0.20588845765280406  0.13138922656453542  1.0000
  H   H78       1.0  0.09381565823175411  0.705888442462955  0.8686112917173915  1.0000
  H   H79       1.0  0.5938158199519141  0.7941117247627127  0.8686101837641503  1.0000
  H   H80       1.0  0.9061843503456517  0.2941113905194724  0.13138897249985543  1.0000
  H   H81       1.0  0.39593680735269543  0.9707890066161395  0.08050430579265505  1.0000
  H   H82       1.0  0.10406305867265457  0.4707887695468103  0.9194959865570661  1.0000
  H   H83       1.0  0.6040628061369617  0.02921149381675895  0.9194959670483998  1.0000
  H   H84       1.0  0.8959371381226764  0.5292105315692938  0.08050321602315681  1.0000
  H   H85       1.0  0.5807820796565694  0.7903854188822952  0.2657122225269019  1.0000
  H   H86       1.0  0.9192176899925383  0.29038565012581746  0.7342874674589214  1.0000
  H   H87       1.0  0.419217803265383  0.20961446645982645  0.7342875411172075  1.0000
  H   H88       1.0  0.0807821077947736  0.7096146309467475  0.26571255300177155  1.0000
  H   H89       1.0  0.7151165324377374  0.7540328119430805  0.28294561197644214  1.0000
  H   H90       1.0  0.7848835431554172  0.2540326640230435  0.7170535591538607  1.0000
  H   H91       1.0  0.2848836770529486  0.24596733464716816  0.717053701291295  1.0000
  H   H92       1.0  0.21511621107322773  0.7459675068182109  0.28294647211473006  1.0000
  H   H93       1.0  0.6696504231769081  0.8055980966111995  0.17105660155863697  1.0000
  H   H94       1.0  0.8303494313681212  0.30559812541416814  0.8289430211729275  1.0000
  H   H95       1.0  0.3303495533514507  0.1944020169097304  0.8289431194989966  1.0000
  H   H96       1.0  0.16965033834317902  0.6944023237611081  0.17105692203984166  1.0000
  H   H97       1.0  0.1768104417669249  0.0660505787406707  0.9354589010823755  1.0000
  H   H98       1.0  0.3231896947882181  0.566050501283926  0.06454149539736331  1.0000
  H   H99       1.0  0.8231896027103827  0.9339504265514946  0.06454070041359157  1.0000
  H   H100      1.0  0.6768103902178035  0.43394902580654354  0.9354584242157556  1.0000
  H   H101      1.0  0.2154016252602059  0.007150216687654913  0.0415215242853443  1.0000
  H   H102      1.0  0.284598270102975  0.5071502971170715  0.9584784547464743  1.0000
  H   H103      1.0  0.784597908124065  0.9928498599055162  0.958477598320874  1.0000
  H   H104      1.0  0.715401340950343  0.4928492520195381  0.04152139276549419  1.0000
  H   H105      1.0  0.2953539775288109  0.009918481410933235  0.9377426937541739  1.0000
  H   H106      1.0  0.20464604455782037  0.5099183588987023  0.06225742008526098  1.0000
  H   H107      1.0  0.7046459891299208  0.9900820846094031  0.06225669767292757  1.0000
  H   H108      1.0  0.7953536279656878  0.49008148290213327  0.9377427576323303  1.0000
  C   C1        1.0  0.03634239390450033  0.9653318415009151  0.41651221911695796  1.0000
  C   C2        1.0  0.46365755434154304  0.46533166584941593  0.5834881416011841  1.0000
  C   C3        1.0  0.963657360319889  0.03466815021446911  0.583487814396059  1.0000
  C   C4        1.0  0.5363416995392104  0.5346681031987007  0.41651213787307534  1.0000
  C   C5        1.0  0.029475752407452736  0.04265190381219246  0.42026538722687595  1.0000
  C   C6        1.0  0.47052363007934384  0.5426518910716064  0.5797353640451149  1.0000
  C   C7        1.0  0.9705231709544311  0.9573480994772401  0.5797344299590513  1.0000
  C   C8        1.0  0.5294753602983084  0.45734771152742004  0.4202657051707804  1.0000
  C   C9        1.0  0.006162287846956472  0.9222985814166847  0.4958525288761672  1.0000
  C   C10       1.0  0.49383695061647326  0.42229786352175464  0.5041479126107908  1.0000
  C   C11       1.0  0.9938374146107252  0.07770155304825495  0.5041475938436922  1.0000
  C   C12       1.0  0.5061628522275567  0.5777013615352633  0.4958532930327838  1.0000
  C   C13       1.0  0.08488924034607152  0.9308503564731804  0.3316738617685814  1.0000
  C   C14       1.0  0.41511020477682353  0.4308501536975837  0.6683259037280362  1.0000
  C   C15       1.0  0.915110744761537  0.06914976972452731  0.6683264499432776  1.0000
  C   C16       1.0  0.5848894042701671  0.5691496875520466  0.33167415608512113  1.0000
  C   C17       1.0  0.023101534969057615  0.9060489014806188  0.24383141189142057  1.0000
  C   C18       1.0  0.4768977345400966  0.40604861937252557  0.7561681823328988  1.0000
  C   C19       1.0  0.9768983464138312  0.09395108747904707  0.7561687467000756  1.0000
  C   C20       1.0  0.5231027862087743  0.593949480222061  0.2438298062741594  1.0000
  C   C21       1.0  0.07366380745081536  0.8778848661472657  0.16467496580242774  1.0000
  C   C22       1.0  0.42633520824823473  0.3778847081084913  0.8353247851362358  1.0000
  C   C23       1.0  0.926336278011284  0.12211528926182785  0.8353255772252055  1.0000
  C   C24       1.0  0.5736657826363054  0.6221117528977034  0.16467272511508807  1.0000
  C   C25       1.0  0.1866477465835561  0.8734375427804784  0.17377238656592692  1.0000
  C   C26       1.0  0.313351687662553  0.3734374608663462  0.8262279244824013  1.0000
  C   C27       1.0  0.8133517410630456  0.12656264790230773  0.826227486705839  1.0000
  C   C28       1.0  0.6866495913972258  0.6265587857410029  0.17377288022385332  1.0000
  C   C29       1.0  0.24860391731962192  0.897135809121559  0.26211891614939353  1.0000
  C   C30       1.0  0.25139527198902845  0.3971355228740805  0.737881224234222  1.0000
  C   C31       1.0  0.7513963047275438  0.10286429613226726  0.737881451439759  1.0000
  C   C32       1.0  0.7486046084901312  0.6028629663893444  0.26212115905364997  1.0000
  C   C33       1.0  0.19754684077346363  0.9257988374593705  0.3402372548456091  1.0000
  C   C34       1.0  0.302452317757976  0.4257983249028354  0.6597629876660465  1.0000
  C   C35       1.0  0.8024529229117611  0.07420121433211145  0.6597628942284507  1.0000
  C   C36       1.0  0.6975469517914717  0.5742011255774047  0.3402392759117554  1.0000
  C   C37       1.0  0.24137828116563673  0.8406773378904089  0.09238906604494607  1.0000
  C   C38       1.0  0.2586196936247763  0.34067718837187894  0.907611208460349  1.0000
  C   C39       1.0  0.7586240629602954  0.15932302861205896  0.9076113138601739  1.0000
  C   C40       1.0  0.7413805679320071  0.6593173546100485  0.09238828727676093  1.0000
  C   C41       1.0  0.061452880024348434  0.08743232663876067  0.3355119677357315  1.0000
  C   C42       1.0  0.4385458754897956  0.5874323173781892  0.6644887673720581  1.0000
  C   C43       1.0  0.938545075175884  0.9125675438215897  0.6644873243084966  1.0000
  C   C44       1.0  0.5614537907995967  0.41256752772967886  0.3355117284338098  1.0000
  C   C45       1.0  0.1660980470004807  0.1162969380236155  0.34200062052632674  1.0000
  C   C46       1.0  0.3339010514411112  0.6162968153845603  0.6580005448944455  1.0000
  C   C47       1.0  0.8339004181072275  0.8837029566879326  0.6579993545689626  1.0000
  C   C48       1.0  0.6660988528536503  0.3837032094003597  0.3419998669703091  1.0000
  C   C49       1.0  0.19641423263143704  0.16049184293291907  0.2655107222592773  1.0000
  C   C50       1.0  0.30358507061113804  0.6604914301881241  0.734490701153297  1.0000
  C   C51       1.0  0.8035832545490225  0.8395072162247312  0.7344879071673137  1.0000
  C   C52       1.0  0.6964153565059393  0.3395087582904652  0.265509951455041  1.0000
  C   C53       1.0  0.12263543134820763  0.1750456528367521  0.18036749303513017  1.0000
  C   C54       1.0  0.37736490703368736  0.6750446411363085  0.8196341251012416  1.0000
  C   C55       1.0  0.8773628405944585  0.8249537359127521  0.8196314298421575  1.0000
  C   C56       1.0  0.6226345487109504  0.3249558615012668  0.18036642930303734  1.0000
  C   C57       1.0  0.019411758000754474  0.14392836948667825  0.17136841455799287  1.0000
  C   C58       1.0  0.4805883261052274  0.6439274136418909  0.8286324313036052  1.0000
  C   C59       1.0  0.9805854493641615  0.8560708710014163  0.8286302364780447  1.0000
  C   C60       1.0  0.5194115823450466  0.3560727323974456  0.1713679136792309  1.0000
  C   C61       1.0  0.9886557237706466  0.10087419455512413  0.2493092459475405  1.0000
  C   C62       1.0  0.5113433960632919  0.6008735447942177  0.7506915371881991  1.0000
  C   C63       1.0  0.011342134299590726  0.8991250332568881  0.750690683960395  1.0000
  C   C64       1.0  0.4886560319648969  0.3991261448872675  0.24930831140699036  1.0000
  C   C65       1.0  0.15529133346430785  0.2262986395671018  0.10416694510611595  1.0000
  C   C66       1.0  0.3447081301842088  0.7262991796734128  0.8958344123190358  1.0000
  C   C67       1.0  0.8447036684810068  0.7736984486544741  0.8958322866336331  1.0000
  C   C68       1.0  0.6552948472174709  0.2736996463470329  0.10416707985999621  1.0000
  C   C69       1.0  0.010011617941090883  0.8401978040103412  0.49150313936221407  1.0000
  C   C70       1.0  0.4899885481587504  0.3401976068331337  0.5084969437004604  1.0000
  C   C71       1.0  0.9899882596445658  0.15980226652045185  0.5084968930813261  1.0000
  C   C72       1.0  0.5100116773055712  0.6598020635581643  0.49150332025488974  1.0000
  C   C73       1.0  0.9185646282103165  0.800772866631192  0.45031239777910503  1.0000
  C   C74       1.0  0.5814354026383969  0.3007729518758147  0.5496877738202811  1.0000
  C   C75       1.0  0.08143544205559015  0.19922697572084302  0.5496876443972075  1.0000
  C   C76       1.0  0.41856433720876135  0.6992266556835766  0.45031262101518893  1.0000
  C   C77       1.0  0.9189487533365639  0.7240991599821442  0.4502867874170585  1.0000
  C   C78       1.0  0.5810510577872485  0.22409915689572002  0.5497134068462932  1.0000
  C   C79       1.0  0.08105102355852159  0.27590065370967215  0.5497131947697143  1.0000
  C   C80       1.0  0.41894855964493766  0.7759003272045619  0.45028691358343054  1.0000
  C   C81       1.0  0.011123298111712678  0.6853257340442399  0.490908245862049  1.0000
  C   C82       1.0  0.4888766275395155  0.18532567509533165  0.5090919975611277  1.0000
  C   C83       1.0  0.9888771166531602  0.3146740906709525  0.5090921112590306  1.0000
  C   C84       1.0  0.5111228052877235  0.8146738712854643  0.490907871779653  1.0000
  C   C85       1.0  0.10346142909999122  0.7245579974848111  0.5297375072106677  1.0000
  C   C86       1.0  0.39653852164555836  0.22455789537123816  0.47026283904222826  1.0000
  C   C87       1.0  0.8965383575517195  0.2754420438346389  0.4702624311752747  1.0000
  C   C88       1.0  0.6034613972811963  0.7754421387833267  0.529737508617436  1.0000
  C   C89       1.0  0.10262384662058552  0.8012158810160638  0.5301994023339297  1.0000
  C   C90       1.0  0.3973764325741919  0.30121586110111204  0.4698009783859429  1.0000
  C   C91       1.0  0.8973762775846875  0.19878398062647404  0.46980068333562736  1.0000
  C   C92       1.0  0.6026236506389218  0.698784188485901  0.5301994730914432  1.0000
  C   C93       1.0  0.007923968253781253  0.603783494255085  0.49338563860828527  1.0000
  C   C94       1.0  0.4920752711156822  0.10378387775073004  0.5066144258871279  1.0000
  C   C95       1.0  0.9920738152454374  0.3962153835725817  0.5066145036574453  1.0000
  C   C96       1.0  0.5079250963010726  0.8962156283956864  0.49338494258803706  1.0000
  C   C97       1.0  0.5240682734094696  0.009262472424803709  0.1908729760283235  1.0000
  C   C98       1.0  0.9759318547082961  0.5092623495747847  0.8091270177686081  1.0000
  C   C99       1.0  0.47593165370798074  0.990737722667318  0.8091268681765704  1.0000
  C   C100      1.0  0.024068426896879585  0.4907376548171679  0.19087253785181138  1.0000
  C   C101      1.0  0.5684938352853282  0.9381617969804454  0.2123016588985184  1.0000
  C   C102      1.0  0.9315058299414442  0.43816169153637274  0.787698222189031  1.0000
  C   C103      1.0  0.43150567582703736  0.061838359530627544  0.7876981691233276  1.0000
  C   C104      1.0  0.0684943793950609  0.561838294667352  0.2123011741263985  1.0000
  C   C105      1.0  0.6598327105902637  0.9302525282937489  0.28097576790428913  1.0000
  C   C106      1.0  0.8401669167594139  0.4302523683762272  0.7190241249163376  1.0000
  C   C107      1.0  0.34016687934371576  0.0697476728610501  0.7190241640356771  1.0000
  C   C108      1.0  0.1598329358042457  0.5697476255436784  0.28097548788590776  1.0000
  C   C109      1.0  0.7101081010802133  0.9923390720238178  0.33139121057159815  1.0000
  C   C110      1.0  0.7898918598962681  0.49233898551223726  0.6686088232590739  1.0000
  C   C111      1.0  0.2898916147554116  0.007661021655465475  0.6686086547315214  1.0000
  C   C112      1.0  0.21010836444524655  0.5076611302133243  0.3313907423737739  1.0000
  C   C113      1.0  0.6671272066356742  0.06140314949409248  0.3119415853300341  1.0000
  C   C114      1.0  0.8328731354344125  0.5614029886747653  0.688058513087865  1.0000
  C   C115      1.0  0.332872842236349  0.9385970340237667  0.6880582546309936  1.0000
  C   C116      1.0  0.16712751764778497  0.43859700193825696  0.3119407229353679  1.0000
  C   C117      1.0  0.5739320367092271  0.07210591072088882  0.24201164616325754  1.0000
  C   C118      1.0  0.9260683249873678  0.5721057011830518  0.7579885058932622  1.0000
  C   C119      1.0  0.42606796047796835  0.9278943587773907  0.7579882388620593  1.0000
  C   C120      1.0  0.07393220498295924  0.42789420841002523  0.24201103130974935  1.0000
  C   C121      1.0  0.5287186171799362  0.1427122079099717  0.21963347931780977  1.0000
  C   C122      1.0  0.9712816539808947  0.64271213651168  0.7803667266893591  1.0000
  C   C123      1.0  0.4712813995799181  0.8572879486011886  0.7803662859338353  1.0000
  C   C124      1.0  0.02871809067862368  0.3572879648838331  0.21963324737608944  1.0000
  C   C125      1.0  0.440486606449627  0.15161897897253945  0.14879533831267702  1.0000
  C   C126      1.0  0.05951375163809688  0.6516189147580909  0.8512050133065373  1.0000
  C   C127      1.0  0.5595135365229215  0.8483812133637516  0.8512041927102723  1.0000
  C   C128      1.0  0.9404861610146821  0.34838093916826096  0.14879523935606784  1.0000
  C   C129      1.0  0.3914225025714381  0.08921047121605499  0.09793028254512699  1.0000
  C   C130      1.0  0.10857762810225065  0.5892104044544634  0.9020698678353278  1.0000
  C   C131      1.0  0.6085774481756185  0.9107897387572582  0.9020694281248391  1.0000
  C   C132      1.0  0.891422298344903  0.41078930121064244  0.0979299029569866  1.0000
  C   C133      1.0  0.4319940391363876  0.019194173048229436  0.11900789952639652  1.0000
  C   C134      1.0  0.06800598833747103  0.5191940766927367  0.8809922094019931  1.0000
  C   C135      1.0  0.568005722712346  0.9808061162916208  0.8809919357886737  1.0000
  C   C136      1.0  0.9319940895262181  0.48080569896930575  0.11900764879153893  1.0000
  C   C137      1.0  0.6650466874159465  0.8001878512235328  0.2526479254320894  1.0000
  C   C138      1.0  0.8349529771974766  0.30018790442035637  0.7473515936250831  1.0000
  C   C139      1.0  0.33495307163582577  0.1998121432475074  0.7473516790806471  1.0000
  C   C140      1.0  0.1650468046413528  0.6998123827148987  0.25264833149711335  1.0000
  C   C141      1.0  0.24525122295107266  0.04252423057063122  0.9838376103802283  1.0000
  C   C142      1.0  0.2547487819960284  0.5425241710562073  0.016162625676470952  1.0000
  C   C143      1.0  0.7547491818794035  0.9574760207394919  0.01616201749228827  1.0000
  C   C144      1.0  0.7452511197640852  0.4574754150080077  0.9838374139801668  1.0000
  O   O1        1.0  0.18035388795737195  0.8341077824367071  0.005704457076760301  1.0000
  O   O2        1.0  0.31964613880991855  0.3341071656638194  0.9942961251835878  1.0000
  O   O3        1.0  0.8196448941061747  0.1658926270548278  0.9942945995985211  1.0000
  O   O4        1.0  0.6803729545322944  0.66586301124045  0.005693940727002128  1.0000
  O   O5        1.0  0.33796570271212134  0.8203575424763201  0.10667574505857232  1.0000
  O   O6        1.0  0.16203505003344632  0.3203582511050777  0.8933262643434144  1.0000
  O   O7        1.0  0.6620312352523448  0.17964311834235835  0.8933238327491932  1.0000
  O   O8        1.0  0.837962849687027  0.6796591059021817  0.10668598561042147  1.0000
  O   O9        1.0  0.09569227660910706  0.22634468953179349  0.015799892636512117  1.0000
  O   O10       1.0  0.40431009990100425  0.7263440457341583  0.9842024612477777  1.0000
  O   O11       1.0  0.9043079610641688  0.7736575801137887  0.9842007446179942  1.0000
  O   O12       1.0  0.5956904159979208  0.2736562821867766  0.015797272678951025  1.0000
  O   O13       1.0  0.23475973373949144  0.26786197154020563  0.12604218512511653  1.0000
  O   O14       1.0  0.26524232598198016  0.7678604088863346  0.8739589267484743  1.0000
  O   O15       1.0  0.7652440109140116  0.732136853929166  0.8739590432674774  1.0000
  O   O16       1.0  0.734755895364599  0.23214086151189098  0.12604119300381636  1.0000
  O   O17       1.0  0.09411911915581411  0.5713329343006402  0.5404342836273468  1.0000
  O   O18       1.0  0.40588255986672034  0.07133261753705382  0.45956635378830907  1.0000
  O   O19       1.0  0.9058834405592422  0.42866680167888743  0.45956636077989454  1.0000
  O   O20       1.0  0.5941164914165781  0.9286670886790828  0.5404336117602565  1.0000
  O   O21       1.0  0.9274424836170667  0.568942972769937  0.4540226438750896  1.0000
  O   O22       1.0  0.5725587553903871  0.06894381542865395  0.5459779036199071  1.0000
  O   O23       1.0  0.0725599938564107  0.4310566546327745  0.5459814777585097  1.0000
  O   O24       1.0  0.42744050351288043  0.9310561454208685  0.4540188001288211  1.0000
  O   O25       1.0  0.7087792901113313  0.8640642095509146  0.3055600455823583  1.0000
  O   O26       1.0  0.7912202792394818  0.3640641511206364  0.6944396990947059  1.0000
  O   O27       1.0  0.2912203686243525  0.13593580255716767  0.6944397414480349  1.0000
  O   O28       1.0  0.20877992336097412  0.6359361007405776  0.30555985136730396  1.0000
  O   O29       1.0  0.30358380269094054  0.10430074747685567  0.029436495649783376  1.0000
  O   O30       1.0  0.19641615955397607  0.6043006911731021  0.9705640392347271  1.0000
  O   O31       1.0  0.6964157847608405  0.895699386436857  0.9705634704339112  1.0000
  O   O32       1.0  0.803583912562825  0.3956989676437724  0.02943587443643024  1.0000
