data_image0
_chemical_formula_structural       H84C88N12O16S8Cl4
_chemical_formula_sum              "H84 C88 N12 O16 S8 Cl4"
_cell_length_a       12.366682626591077
_cell_length_b       10.260746089868476
_cell_length_c       17.923395535614283
_cell_angle_alpha    90.0
_cell_angle_beta     95.50429460904465
_cell_angle_gamma    90.0

_space_group_name_H-M_alt    "P 1"
_space_group_IT_number       1

loop_
  _space_group_symop_operation_xyz
  'x, y, z'

loop_
  _atom_site_type_symbol
  _atom_site_label
  _atom_site_symmetry_multiplicity
  _atom_site_fract_x
  _atom_site_fract_y
  _atom_site_fract_z
  _atom_site_occupancy
  H   H1        1.0  0.10789189848587001  0.4542658028154896  0.422540037530106  1.0000
  H   H2        1.0  0.39210810213032726  0.9542658033091926  0.07745996266634589  1.0000
  H   H3        1.0  0.8921081019386827  0.5457341971973284  0.57745996286816  1.0000
  H   H4        1.0  0.6078918982085703  0.04573419670362539  0.9225400371714314  1.0000
  H   H5        1.0  0.31383131862687536  0.30806870205288533  0.5596257683550772  1.0000
  H   H6        1.0  0.1861686814047116  0.8080687025465885  0.9403742315128478  1.0000
  H   H7        1.0  0.6861686809041805  0.6919312979599327  0.4403742314880623  1.0000
  H   H8        1.0  0.813831318934186  0.19193129746622972  0.05962576832492931  1.0000
  H   H9        1.0  0.07109623035476578  0.6395138728244381  0.6581693316792497  1.0000
  H   H10       1.0  0.4289037696768212  0.1395138723307351  0.8418306681886752  1.0000
  H   H11       1.0  0.9289037691762899  0.36048612718837997  0.3418306681638897  1.0000
  H   H12       1.0  0.5710962306620764  0.860486127682083  0.15816933164910194  1.0000
  H   H13       1.0  0.18998975018573358  0.5044021677049745  0.7465081909189719  1.0000
  H   H14       1.0  0.31001024984585335  0.0044021672112713765  0.7534918089489531  1.0000
  H   H15       1.0  0.8100102501531641  0.4955978323078437  0.2534918089188052  1.0000
  H   H16       1.0  0.6899897496852023  0.9955978328015467  0.24650819089418644  1.0000
  H   H17       1.0  0.8474397198599601  0.12528889310197114  0.4209800741250441  1.0000
  H   H18       1.0  0.6525602800640613  0.6252888935956742  0.07901992624843636  1.0000
  H   H19       1.0  0.15256028047893733  0.874711106910847  0.5790199257127331  1.0000
  H   H20       1.0  0.34743971955264963  0.3747111064171439  0.9209800741551921  1.0000
  H   H21       1.0  0.360422243660776  0.5899421832469876  0.5125479823385124  1.0000
  H   H22       1.0  0.1395777563708109  0.08994218275328451  0.9874520175294125  1.0000
  H   H23       1.0  0.6395777566781216  0.4100578167658306  0.4874520174992647  1.0000
  H   H24       1.0  0.8604222431602448  0.9100578172595336  0.012547982313726882  1.0000
  H   H25       1.0  0.12524085203222204  0.7829758791061732  0.3814438538655232  1.0000
  H   H26       1.0  0.37475914777613345  0.28297587958705817  0.11855614633629102  1.0000
  H   H27       1.0  0.8747591483066756  0.21702412090664489  0.6185561459722541  1.0000
  H   H28       1.0  0.6252408517549224  0.7170241204257599  0.8814438535068485  1.0000
  H   H29       1.0  0.7924045010040527  0.8933543272307499  0.3983209792198102  1.0000
  H   H30       1.0  0.7075954996421555  0.39335432673704673  0.10167902058781908  1.0000
  H   H31       1.0  0.20759549933484503  0.10664567278206827  0.601679020617967  1.0000
  H   H32       1.0  0.29240450069674195  0.6066456732757713  0.8983209792499581  1.0000
  H   H33       1.0  0.16865048179962203  0.5312589291516007  0.3019079328211598  1.0000
  H   H34       1.0  0.3313495180087334  0.031258928657897554  0.1980920673806544  1.0000
  H   H35       1.0  0.8313495185392754  0.46874107086121747  0.6980920670166174  1.0000
  H   H36       1.0  0.6686504816079776  0.9687410713549205  0.8019079330229739  1.0000
  H   H37       1.0  0.9310633369519051  0.724055421012297  0.3802289415096306  1.0000
  H   H38       1.0  0.5689366629721163  0.22405542051859395  0.11977105886384987  1.0000
  H   H39       1.0  0.06893666266480565  0.2759445790005211  0.6197710588939978  1.0000
  H   H40       1.0  0.4310633374524364  0.7759445794942242  0.8802289415344161  1.0000
  H   H41       1.0  0.4642226226903728  0.764364242259554  0.45743951404943695  1.0000
  H   H42       1.0  0.03577737703232747  0.264364241765851  0.042560485591888346  1.0000
  H   H43       1.0  0.5357773776485248  0.2356357577532641  0.5425604857883402  1.0000
  H   H44       1.0  0.9642226224987281  0.7356357582469671  0.9574395142512513  1.0000
  H   H45       1.0  0.27488129334435885  0.705627349764466  0.24417359334153127  1.0000
  H   H46       1.0  0.2251187064639966  0.2056273502453509  0.25582640686028296  1.0000
  H   H47       1.0  0.7251187062723521  0.29437265024835213  0.7558264070620971  1.0000
  H   H48       1.0  0.7748812938749009  0.7943726497674672  0.7441735929774943  1.0000
  H   H49       1.0  0.3174606747730288  0.3022750639022738  0.42594844775178403  1.0000
  H   H50       1.0  0.1825393250353266  0.8022750634213889  0.07405155245003013  1.0000
  H   H51       1.0  0.6825393247580269  0.6977249361105443  0.5740515520913554  1.0000
  H   H52       1.0  0.8174606753892261  0.19772493659142926  0.9259484479482359  1.0000
  H   H53       1.0  0.017663092191636  0.6887487213993214  0.5353003531169291  1.0000
  H   H54       1.0  0.4823369079256061  0.18874872090561837  0.9646996473114847  1.0000
  H   H55       1.0  0.9823369074250748  0.3112512786134967  0.4646996472866992  1.0000
  H   H56       1.0  0.5176630924989466  0.8112512791071997  0.035300353086781255  1.0000
  H   H57       1.0  0.4356982096423288  0.45469149310757406  0.2791290250897217  1.0000
  H   H58       1.0  0.06430179016602662  0.9546914926266891  0.22087097511209247  1.0000
  H   H59       1.0  0.5643017898887268  0.545308506905244  0.7208709747534178  1.0000
  H   H60       1.0  0.9356982102585261  0.04530850738612899  0.7791290252861736  1.0000
  H   H61       1.0  0.566494780599957  0.4233651599944895  0.24856624683152795  1.0000
  H   H62       1.0  0.9335052192384095  0.9233651604881925  0.2514337529814636  1.0000
  H   H63       1.0  0.43350521973894063  0.5766348400183287  0.7514337530062493  1.0000
  H   H64       1.0  0.06649478029264633  0.07663483952462558  0.7485662468616758  1.0000
  H   H65       1.0  0.5547539426834296  0.46129155604713634  0.3449472823624872  1.0000
  H   H66       1.0  0.9452460571549367  0.9612915565408395  0.15505271745050445  1.0000
  H   H67       1.0  0.4452460568476262  0.5387084439656817  0.6550527174806523  1.0000
  H   H68       1.0  0.05475394237611894  0.03870844347197866  0.8449472823926351  1.0000
  H   H69       1.0  0.6537622491046403  0.25870398280501894  0.401925037730923  1.0000
  H   H70       1.0  0.8462377515415678  0.758703983298722  0.09807496207670634  1.0000
  H   H71       1.0  0.34623775123425715  0.7412960172077991  0.5980749621068542  1.0000
  H   H72       1.0  0.1537622487973298  0.2412960167140961  0.9019250377610708  1.0000
  H   H73       1.0  0.6874235978955124  0.20706273124698613  0.3112247435198534  1.0000
  H   H74       1.0  0.8125764019428539  0.7070627317406892  0.18877525629313816  1.0000
  H   H75       1.0  0.31257640244338514  0.7929372687658319  0.6887752563179238  1.0000
  H   H76       1.0  0.18742359758820185  0.29293726827212896  0.8112247435500013  1.0000
  H   H77       1.0  0.6237961922710857  0.09530061570917737  0.3709823571776295  1.0000
  H   H78       1.0  0.8762038075672806  0.5953006152282925  0.12901764263536206  1.0000
  H   H79       1.0  0.37620380725996994  0.9046993843036407  0.62901764266551  1.0000
  H   H80       1.0  0.12379619277161703  0.4046993847845257  0.8709823572024151  1.0000
  H   H81       1.0  0.4620700822485483  0.3852563337380733  0.4329384862653359  1.0000
  H   H82       1.0  0.037929917559807194  0.8852563332571883  0.06706151393647833  1.0000
  H   H83       1.0  0.5379299181760044  0.6147436662747449  0.5670615141329303  1.0000
  H   H84       1.0  0.9620700819712487  0.1147436667556298  0.9329384859066612  1.0000
  C   C1        1.0  0.19475351215825673  0.4579635378210819  0.5308867578915794  1.0000
  C   C2        1.0  0.3052464879589854  0.9579635383147849  0.9691132425368347  1.0000
  C   C3        1.0  0.805246488266296  0.5420364621917363  0.46911324250668684  1.0000
  C   C4        1.0  0.6947535116577255  0.042036461698033184  0.030886757866793665  1.0000
  C   C5        1.0  0.1279533321919429  0.5543002097689471  0.5589538770923236  1.0000
  C   C6        1.0  0.3720466678396441  0.05430021024983201  0.9410461227756016  1.0000
  C   C7        1.0  0.8720466673391127  0.4456997902438711  0.44104612275081595  1.0000
  C   C8        1.0  0.6279533324992536  0.9456997897629861  0.058953877062175704  1.0000
  C   C9        1.0  0.1927070047627858  0.44283942124702197  0.44641562708020605  1.0000
  C   C10       1.0  0.3072929950455697  0.942839421740725  0.05358437312160816  1.0000
  C   C11       1.0  0.8072929948539252  0.557160578765796  0.5535843733234224  1.0000
  C   C12       1.0  0.6927070052933278  0.057160578272093074  0.9464156267161691  1.0000
  C   C13       1.0  0.2581184988001099  0.5486252140629821  0.41121803589768763  1.0000
  C   C14       1.0  0.24188150100824554  0.04862521454386709  0.08878196430412653  1.0000
  C   C15       1.0  0.7418815008166009  0.451374785949836  0.5887819645059407  1.0000
  C   C16       1.0  0.7581184985228102  0.951374785468951  0.9112180355390129  1.0000
  C   C17       1.0  0.017081875828399352  0.08614750255566751  0.41077723762936624  1.0000
  C   C18       1.0  0.4829181239799561  0.5861475020747826  0.08922276257244793  1.0000
  C   C19       1.0  0.9829181237883114  0.9138524974571506  0.5892227627742621  1.0000
  C   C20       1.0  0.5170818763589415  0.4138524979380356  0.9107772372653292  1.0000
  C   C21       1.0  0.16581369900899912  0.21159920643040003  0.4183753631992696  1.0000
  C   C22       1.0  0.33418630079935635  0.7115992069241031  0.08162463700254453  1.0000
  C   C23       1.0  0.8341863005220567  0.788400793582418  0.5816246366438699  1.0000
  C   C24       1.0  0.6658136995395413  0.28840079308871497  0.9183753628352327  1.0000
  C   C25       1.0  0.09463593337735246  0.9883400106755774  0.39847075763815  1.0000
  C   C26       1.0  0.4053640672388448  0.4883400111564624  0.10152924255830192  1.0000
  C   C27       1.0  0.9053640670472003  0.011659989337240637  0.6015292427601161  1.0000
  C   C28       1.0  0.5946359331000527  0.5116599888563558  0.8984707572794752  1.0000
  C   C29       1.0  0.2613039580146233  0.38194844075419815  0.580823881009078  1.0000
  C   C30       1.0  0.23869604201696362  0.8819484412479013  0.9191761188588471  1.0000
  C   C31       1.0  0.7386960423242742  0.61805155925862  0.4191761188286992  1.0000
  C   C32       1.0  0.7613039583219338  0.11805155876491692  0.08082388097893008  1.0000
  C   C33       1.0  0.1256530993376606  0.5683514043640808  0.6367704469377826  1.0000
  C   C34       1.0  0.37434690069392634  0.0683514048449658  0.8632295529301425  1.0000
  C   C35       1.0  0.8743469001933952  0.4316485956487372  0.3632295529053569  1.0000
  C   C36       1.0  0.6256530996449712  0.9316485951678523  0.13677044690763468  1.0000
  C   C37       1.0  0.1914113810530682  0.4913973794730779  0.6863551687590826  1.0000
  C   C38       1.0  0.3085886190641739  0.9913973799667809  0.8136448316693313  1.0000
  C   C39       1.0  0.8085886193714845  0.5086026205397401  0.31364483163918344  1.0000
  C   C40       1.0  0.691411380552537  0.008602620046037162  0.18635516873429706  1.0000
  C   C41       1.0  0.9074075204560793  0.05125242310783473  0.41057873249664606  1.0000
  C   C42       1.0  0.5925924794679424  0.5512524226269497  0.08942126787683446  1.0000
  C   C43       1.0  0.09259247996847353  0.9487475769049833  0.58942126790162  1.0000
  C   C44       1.0  0.40740752014876863  0.4487475773858683  0.910578732526794  1.0000
  C   C45       1.0  0.25945882656985436  0.39924398324649607  0.6579678977023888  1.0000
  C   C46       1.0  0.2405411734617326  0.899243982765611  0.8420321021655363  1.0000
  C   C47       1.0  0.7405411729612014  0.6007560167663221  0.34203210214075064  1.0000
  C   C48       1.0  0.7594588268771649  0.100756017247207  0.15796789767224098  1.0000
  C   C49       1.0  0.3416646256421025  0.6150480924804653  0.45369398672610395  1.0000
  C   C50       1.0  0.15833537416625293  0.11504809198676229  0.04630601347571024  1.0000
  C   C51       1.0  0.6583353738889532  0.38495190753235276  0.5463060131170355  1.0000
  C   C52       1.0  0.8416646254504578  0.8849519080260557  0.953693986927918  1.0000
  C   C53       1.0  0.06504569582864479  0.8582618371870151  0.38819362321524226  1.0000
  C   C54       1.0  0.43495430397971063  0.35826183669331196  0.1118063769865719  1.0000
  C   C55       1.0  0.9349543045102527  0.14173816282580304  0.6118063766225349  1.0000
  C   C56       1.0  0.5650456956370002  0.6417381633195061  0.8881936234170565  1.0000
  C   C57       1.0  0.8774892293125945  0.9213171388515643  0.39836967151244523  1.0000
  C   C58       1.0  0.6225107706114269  0.4213171383578611  0.10163032886103529  1.0000
  C   C59       1.0  0.12251077111195813  0.07868286116125389  0.6016303288858208  1.0000
  C   C60       1.0  0.377489229005284  0.578682861654957  0.898369671542593  1.0000
  C   C61       1.0  0.2340964079741223  0.5817185726770586  0.33535403193071056  1.0000
  C   C62       1.0  0.2659035918342332  0.08171857315794352  0.16464596827110362  1.0000
  C   C63       1.0  0.7659035924504305  0.4182814273357595  0.6646459684675554  1.0000
  C   C64       1.0  0.7340964076968225  0.9182814268548746  0.8353540315720358  1.0000
  C   C65       1.0  0.9553708668144344  0.8254891959916505  0.3878099324382089  1.0000
  C   C66       1.0  0.544629133023932  0.3254891954979474  0.11219006737478274  1.0000
  C   C67       1.0  0.04462913352446324  0.17451080402116764  0.6121900673995684  1.0000
  C   C68       1.0  0.4553708665071238  0.6745108045148707  0.8878099324683567  1.0000
  C   C69       1.0  0.3742311715962511  0.7445431534012285  0.34742981593964856  1.0000
  C   C70       1.0  0.12576882821210442  0.24454315290752537  0.1525701842621656  1.0000
  C   C71       1.0  0.6257688279348047  0.2554568466115897  0.6525701839034909  1.0000
  C   C72       1.0  0.8742311722124484  0.7554568471052927  0.8474298161361005  1.0000
  C   C73       1.0  0.3999576099241882  0.7141121080108437  0.42282121882499996  1.0000
  C   C74       1.0  0.1000423898841673  0.21411210849172865  0.0771787813768142  1.0000
  C   C75       1.0  0.6000423896068676  0.28588789200197434  0.5771787810181396  1.0000
  C   C76       1.0  0.8999576097325436  0.7858878915210894  0.922821219026814  1.0000
  C   C77       1.0  0.29244812582746194  0.6789598542818341  0.302852078430428  1.0000
  C   C78       1.0  0.20755187389523835  0.17895985476271906  0.19714792121089736  1.0000
  C   C79       1.0  0.7075518745114356  0.321040145730984  0.6971479214073493  1.0000
  C   C80       1.0  0.7924481256358175  0.821040145250099  0.8028520786322422  1.0000
  C   C81       1.0  0.5158142703781567  0.4121789022901561  0.29509863755608645  1.0000
  C   C82       1.0  0.9841857295458648  0.9121789027838592  0.20490136281739404  1.0000
  C   C83       1.0  0.4841857292385542  0.587821097722662  0.7049013628475419  1.0000
  C   C84       1.0  0.015814270878687968  0.08782109722895896  0.7950986375808721  1.0000
  C   C85       1.0  0.629135104374201  0.19703143244098287  0.35336504432686233  1.0000
  C   C86       1.0  0.8708648955498204  0.697031432934686  0.14663495604661816  1.0000
  C   C87       1.0  0.3708648951568548  0.8029685675718352  0.6466349555162773  1.0000
  C   C88       1.0  0.12913510487473223  0.30296856707813213  0.853365044351648  1.0000
  N   N1        1.0  0.059622037798528274  0.21002124028074673  0.42301643252555593  1.0000
  N   N2        1.0  0.440377962817669  0.7100212407744498  0.07698356767089597  1.0000
  N   N3        1.0  0.9403779625403693  0.7899787597320714  0.5769835673122212  1.0000
  N   N4        1.0  0.5596220376068837  0.2899787592383683  0.9230164327273701  1.0000
  N   N5        1.0  0.23096778257499379  0.31571431371824576  0.42435867085188694  1.0000
  N   N6        1.0  0.2690322172333617  0.8157143142119487  0.07564132934992723  1.0000
  N   N7        1.0  0.7690322170417171  0.6842856862945723  0.5756413295517414  1.0000
  N   N8        1.0  0.7309677831055359  0.18428568580086926  0.92435867048785  1.0000
  N   N9        1.0  0.4346995460820684  0.8484833367620731  0.3144057289741643  1.0000
  N   N10       1.0  0.06530045372628707  0.3484833362683701  0.18559427122764988  1.0000
  N   N11       1.0  0.5653004534489873  0.15151666325074495  0.6855942708689752  1.0000
  N   N12       1.0  0.9346995458904239  0.6515166637444479  0.8144057291759784  1.0000
  O   O1        1.0  0.06867678409578452  0.629346579034466  0.508765157517626  1.0000
  O   O2        1.0  0.4313232159358024  0.129346578540763  0.9912348423502991  1.0000
  O   O3        1.0  0.9313232154352712  0.370653420978352  0.49123484232551345  1.0000
  O   O4        1.0  0.5686767844030951  0.870653421472055  0.008765157487478158  1.0000
  O   O5        1.0  0.42195799601085426  0.8620414327115835  0.24504074515771737  1.0000
  O   O6        1.0  0.07804200379750119  0.36204143319246845  0.2549592550440969  1.0000
  O   O7        1.0  0.5780420044136985  0.1379585673012346  0.7549592552405487  1.0000
  O   O8        1.0  0.9219579957335546  0.6379585668203497  0.7450407447990427  1.0000
  O   O9        1.0  0.4960595746795885  0.9175764703208519  0.3567284533923168  1.0000
  O   O10       1.0  0.003940425043111802  0.41757647080173693  0.1432715462490085  1.0000
  O   O11       1.0  0.5039404248514673  0.08242352969196615  0.6432715464508226  1.0000
  O   O12       1.0  0.996059574487944  0.5824235292110812  0.856728453594131  1.0000
  O   O13       1.0  0.44279037742937627  0.2929371094142851  0.43419405195776983  1.0000
  O   O14       1.0  0.0572096223789792  0.792937109907988  0.06580594824404434  1.0000
  O   O15       1.0  0.5572096221016796  0.707062890598533  0.5658059478853696  1.0000
  O   O16       1.0  0.9427903780455734  0.20706289010482995  0.9341940521542217  1.0000
  S   S1        1.0  0.22378318108154766  0.05743121648647613  0.40144368270454456  1.0000
  S   S2        1.0  0.2762168186411526  0.5574312169801792  0.09855631693678069  1.0000
  S   S3        1.0  0.7762168184495081  0.942568783526342  0.5985563171385948  1.0000
  S   S4        1.0  0.723783180889903  0.44256878303263886  0.9014436829063588  1.0000
  S   S5        1.0  0.4963974459093293  0.24290134344723338  0.3140200353412551  1.0000
  S   S6        1.0  0.0036025547068679214  0.7429013439409364  0.18597996485519677  1.0000
  S   S7        1.0  0.5036025545152234  0.7570986565655846  0.6859799650570111  1.0000
  S   S8        1.0  0.9963974456320296  0.25709865607188165  0.8140200349825805  1.0000
  Cl  Cl1       1.0  0.3418696265062483  0.3027416001519844  0.7197464589018912  1.0000
  Cl  Cl2       1.0  0.15813037361099383  0.8027415996710995  0.7802535415265228  1.0000
  Cl  Cl3       1.0  0.6581303731104627  0.6972583998608336  0.2802535415017372  1.0000
  Cl  Cl4       1.0  0.8418696268135588  0.19725840034171863  0.21974645887174324  1.0000
