data_image0
_chemical_formula_structural       H8C10N10O10
_chemical_formula_sum              "H8 C10 N10 O10"
_cell_length_a       6.460892040003851
_cell_length_b       8.34378636787158
_cell_length_c       8.697116301600753
_cell_angle_alpha    68.00289690851366
_cell_angle_beta     69.19450628096949
_cell_angle_gamma    81.60370267356085

_space_group_name_H-M_alt    "P 1"
_space_group_IT_number       1

loop_
  _space_group_symop_operation_xyz
  'x, y, z'

loop_
  _atom_site_type_symbol
  _atom_site_label
  _atom_site_symmetry_multiplicity
  _atom_site_fract_x
  _atom_site_fract_y
  _atom_site_fract_z
  _atom_site_occupancy
  H   H1        1.0  0.2407098730988798  0.7398458342456389  0.028205969882467558  1.0000
  H   H2        1.0  0.759290126313737  0.2601541662639908  0.971794029844661  1.0000
  H   H3        1.0  0.6956643540888378  0.3785602764170075  0.21431645602318922  1.0000
  H   H4        1.0  0.3043356469794109  0.6214397240973696  0.7856835432617564  1.0000
  H   H5        1.0  0.3093178766583758  0.39967437405222284  0.48290019213618485  1.0000
  H   H6        1.0  0.6906821244407516  0.6003256251694251  0.5170998076064978  1.0000
  H   H7        1.0  0.4278435652154471  0.21388818514079475  0.74504929242868  1.0000
  H   H8        1.0  0.5721564358528016  0.7861118153735824  0.2549507068562654  1.0000
  C   C1        1.0  0.6088377989415088  0.4296051172300361  0.11871204156530274  1.0000
  C   C2        1.0  0.39116220047626954  0.5703948832811288  0.8812879593097122  1.0000
  C   C3        1.0  0.3540536027656397  0.6326486338761983  0.014369634532760531  1.0000
  C   C4        1.0  0.6459463966830173  0.3673513653422375  0.9856303667999916  1.0000
  C   C5        1.0  0.231849156135687  0.2791380682516947  0.5800668219427002  1.0000
  C   C6        1.0  0.7681508432820913  0.7208619322594702  0.41993317893231463  1.0000
  C   C7        1.0  0.047768750760274974  0.19582046218245436  0.5990434887518249  1.0000
  C   C8        1.0  0.9522312486575034  0.8041795383287106  0.40095651212319006  1.0000
  C   C9        1.0  0.026885000526176903  0.044903844441674105  0.7505297527874574  1.0000
  C   C10       1.0  0.9731149988916014  0.9550961560694907  0.24947024808755758  1.0000
  N   N1        1.0  0.46151023531408036  0.5623825641440304  0.13464095242231458  1.0000
  N   N2        1.0  0.5384897640985364  0.43761743636559935  0.865359047304814  1.0000
  N   N3        1.0  0.18447367395131528  0.03687541230832524  0.8187082414136303  1.0000
  N   N4        1.0  0.815526327147812  0.9631245869133229  0.18129175832905228  1.0000
  N   N5        1.0  0.30463710971122465  0.17947835883355692  0.7130215215669408  1.0000
  N   N6        1.0  0.6953628897013923  0.8205216416760729  0.2869784781601878  1.0000
  N   N7        1.0  0.9297854719812386  0.2530745523958561  0.47697165823039506  1.0000
  N   N8        1.0  0.07021452746225684  0.7469254468210446  0.5230283419544707  1.0000
  N   N9        1.0  0.8596151384854589  0.912614068674396  0.844027499437872  1.0000
  N   N10       1.0  0.1403848626136684  0.08738593054725206  0.15597250030481052  1.0000
  O   O1        1.0  0.42219424242373793  0.619128159920845  0.2631265267583875  1.0000
  O   O2        1.0  0.577805756988879  0.3808718405887847  0.7368734729687412  1.0000
  O   O3        1.0  0.9735217122602179  0.3990013855037745  0.36162265168129526  1.0000
  O   O4        1.0  0.02647828715239883  0.6009986150058553  0.6383773480458333  1.0000
  O   O5        1.0  0.7929119665849484  0.15451428818366655  0.4888467722883679  1.0000
  O   O6        1.0  0.20708803451934038  0.8454857110395165  0.5111532286022011  1.0000
  O   O7        1.0  0.6678296155817006  0.9556179010573683  0.8446095576212445  1.0000
  O   O8        1.0  0.3321703855174267  0.044382098164279814  0.15539044212143802  1.0000
  O   O9        1.0  0.9190928825826983  0.7650026867118156  0.9214260374777767  1.0000
  O   O10       1.0  0.0809071168607974  0.23499731250508507  0.07857396270708916  1.0000
