data_image0
_chemical_formula_structural       H40B44C24N4Cl48
_chemical_formula_sum              "H40 B44 C24 N4 Cl48"
_cell_length_a       9.038674345425338
_cell_length_b       15.864082105811434
_cell_length_c       17.163913179332134
_cell_angle_alpha    86.80122689749565
_cell_angle_beta     76.91898498298464
_cell_angle_gamma    83.30400133817311

_space_group_name_H-M_alt    "P 1"
_space_group_IT_number       1

loop_
  _space_group_symop_operation_xyz
  'x, y, z'

loop_
  _atom_site_type_symbol
  _atom_site_label
  _atom_site_symmetry_multiplicity
  _atom_site_fract_x
  _atom_site_fract_y
  _atom_site_fract_z
  _atom_site_occupancy
  H   H1        1.0  0.28104810603066177  0.673218080279047  0.9479003319677801  1.0000
  H   H2        1.0  0.7189518940433279  0.32678191961831293  0.05209966806096181  1.0000
  H   H3        1.0  0.20120892650469363  0.6039540663957372  0.6721453929611407  1.0000
  H   H4        1.0  0.7987910735692961  0.3960459335016226  0.3278546070676012  1.0000
  H   H5        1.0  0.2684005021390376  0.12665190154242845  0.7759253921157947  1.0000
  H   H6        1.0  0.731599497934952  0.8733480983549313  0.22407460791294723  1.0000
  H   H7        1.0  0.47181049882783704  0.21774015534375388  0.7180419878791469  1.0000
  H   H8        1.0  0.5281895012461526  0.782259844553606  0.28195801214959515  1.0000
  H   H9        1.0  0.2926735934848743  0.24651520953155573  0.6910113807893443  1.0000
  H   H10       1.0  0.7073264065891154  0.7534847903658041  0.3089886192393976  1.0000
  H   H11       1.0  0.4471746934855959  0.19235119321744001  0.6203064533022687  1.0000
  H   H12       1.0  0.5528253065883938  0.8076488066799199  0.3796935467264732  1.0000
  H   H13       1.0  0.19475628571665127  0.025399270923941418  0.6953767700753446  1.0000
  H   H14       1.0  0.8052437143573384  0.9746007289734184  0.3046232299533974  1.0000
  H   H15       1.0  0.2962424648290478  0.08024718856554305  0.6075175159189097  1.0000
  H   H16       1.0  0.703757535244942  0.9197528113318166  0.3924824841098322  1.0000
  H   H17       1.0  0.13611517524082425  0.13421676257232512  0.6741214391706541  1.0000
  H   H18       1.0  0.8638848248331655  0.8657832373250347  0.3258785608580877  1.0000
  H   H19       1.0  0.5325229076808762  0.08627965491403222  0.7567158433820873  1.0000
  H   H20       1.0  0.46747709226151585  0.9137203456180126  0.2432841566466016  1.0000
  H   H21       1.0  0.6025730754808355  0.07560891896229595  0.6123376513849517  1.0000
  H   H22       1.0  0.39742692459315443  0.9243910809350638  0.3876623486437902  1.0000
  H   H23       1.0  0.5012165187807701  0.9812852327567443  0.6239438564934494  1.0000
  H   H24       1.0  0.4987834811616221  0.01871476777530051  0.37605614353523936  1.0000
  H   H25       1.0  0.6634564277886303  0.983623963936712  0.6665503523258766  1.0000
  H   H26       1.0  0.3365435722853594  0.016376035960647746  0.3334496477028653  1.0000
  H   H27       1.0  0.34685272817541934  0.00566478818065439  0.841621292710655  1.0000
  H   H28       1.0  0.6531472718985705  0.9943352117167055  0.15837870731808695  1.0000
  H   H29       1.0  0.515762362335835  0.9424110925829899  0.7938831925167261  1.0000
  H   H30       1.0  0.4842376377381549  0.05758890731436979  0.2061168075120159  1.0000
  H   H31       1.0  0.34648562351811096  0.94230262078785  0.7564920639776281  1.0000
  H   H32       1.0  0.6535143765558789  0.05769737910950996  0.2435079360511138  1.0000
  H   H33       1.0  0.07627038487167756  0.4434241468157428  0.7922197667329818  1.0000
  H   H34       1.0  0.9237296152023122  0.5565758530816168  0.20778023329576017  1.0000
  H   H35       1.0  0.19842148749716151  0.407313691331986  0.6510740636524533  1.0000
  H   H36       1.0  0.8015785125768282  0.5926863085653737  0.3489259363762887  1.0000
  H   H37       1.0  0.4555332970801273  0.4537548970382091  0.5881731524934345  1.0000
  H   H38       1.0  0.5444667029938625  0.5462451028591507  0.41182684753530746  1.0000
  H   H39       1.0  0.5808629752660446  0.5404952843350858  0.6657384951926854  1.0000
  H   H40       1.0  0.4191370248079453  0.4595047155622741  0.3342615048360566  1.0000
  B   B1        1.0  0.2384980029958468  0.6625338768737555  0.09224249552723902  1.0000
  B   B2        1.0  0.761501997078143  0.33746612302360435  0.9077575045015028  1.0000
  B   B3        1.0  0.09428234734394597  0.7341826966790654  0.06007114823009426  1.0000
  B   B4        1.0  0.9057176527300439  0.26581730321829417  0.9399288517986477  1.0000
  B   B5        1.0  0.18708883738224552  0.8147881231550226  0.9954869461089582  1.0000
  B   B6        1.0  0.8129111626917442  0.18521187674233722  0.004513053919783646  1.0000
  B   B7        1.0  0.38904105000294187  0.7921682349969935  0.9877252038695167  1.0000
  B   B8        1.0  0.6109589500710477  0.20783176490036626  0.012274796159225268  1.0000
  B   B9        1.0  0.42097424144711015  0.6978661759006363  0.047470274702927584  1.0000
  B   B10       1.0  0.5790257586268795  0.30213382399672356  0.9525297253258144  1.0000
  B   B11       1.0  0.33351267203277096  0.7198771245968927  0.148989480690106  1.0000
  B   B12       1.0  0.6664873280412187  0.2801228753004671  0.851010519338636  1.0000
  B   B13       1.0  0.13174308931987153  0.7429220216490112  0.1569724704632037  1.0000
  B   B14       1.0  0.8682569107541183  0.2570779782483485  0.8430275295655383  1.0000
  B   B15       1.0  0.1004739578905632  0.835901638294004  0.09720398641984926  1.0000
  B   B16       1.0  0.8995260421834265  0.1640983616033558  0.9027960136088927  1.0000
  B   B17       1.0  0.28158782815887207  0.8729250564381439  0.052015430485554244  1.0000
  B   B18       1.0  0.7184121708088441  0.12707494345821346  0.9479845695434743  1.0000
  B   B19       1.0  0.42517124969449405  0.8001877928198886  0.08454099360719744  1.0000
  B   B20       1.0  0.5748287503794955  0.19981220707747116  0.9154590064215444  1.0000
  B   B21       1.0  0.24807800131114632  0.8271395500171888  0.1510580191128383  1.0000
  B   B22       1.0  0.7519219987628433  0.17286044988017102  0.8489419809159037  1.0000
  B   B23       1.0  0.2619353357172961  0.7140071488588361  0.5708880544614001  1.0000
  B   B24       1.0  0.7380646643566936  0.28599285103852384  0.4291119455673419  1.0000
  B   B25       1.0  0.18362171254197876  0.7570628139318271  0.6677096215872959  1.0000
  B   B26       1.0  0.8163782877847321  0.24293718598477979  0.33229037784303067  1.0000
  B   B27       1.0  0.0007184919620990847  0.719656128888316  0.7057800400884596  1.0000
  B   B28       1.0  0.9992815081118905  0.2803438710090438  0.2942199599402824  1.0000
  B   B29       1.0  0.9663225238865191  0.653254792444355  0.6318945127725732  1.0000
  B   B30       1.0  0.03367747508119714  0.3467452074520023  0.36810548725645525  1.0000
  B   B31       1.0  0.12765634457599317  0.6498956842982812  0.5485822385639907  1.0000
  B   B32       1.0  0.8723436554979965  0.35010431559907873  0.4514177614647512  1.0000
  B   B33       1.0  0.14021550847354583  0.754857779921363  0.5064549248333866  1.0000
  B   B34       1.0  0.8597844914688463  0.24514222061068178  0.49354507519530216  1.0000
  B   B35       1.0  0.17521716499803405  0.8204817033982572  0.5800625937822752  1.0000
  B   B36       1.0  0.8247828350759557  0.17951829649910256  0.4199374062464667  1.0000
  B   B37       1.0  0.014090868883893045  0.8244341166767982  0.6630289638955054  1.0000
  B   B38       1.0  0.9859091314428178  0.17556588323980865  0.3369710355348213  1.0000
  B   B39       1.0  0.8787777375557956  0.7602714756748852  0.6408155588779509  1.0000
  B   B40       1.0  0.12122226251819422  0.23972852422247462  0.35918444115079107  1.0000
  B   B41       1.0  0.9572477735851783  0.7169340632131924  0.5436107168067017  1.0000
  B   B42       1.0  0.04275222660993506  0.28306593733809954  0.45638928262357187  1.0000
  B   B43       1.0  0.9864960520629449  0.8225883424880064  0.5632779959309069  1.0000
  B   B44       1.0  0.01350394801104476  0.17741165740935344  0.43672200409783496  1.0000
  C   C1        1.0  0.2722180882804239  0.7124802195253468  0.9993713257685319  1.0000
  C   C2        1.0  0.7277819117935659  0.287519780372013  0.0006286742602100356  1.0000
  C   C3        1.0  0.14743472885501868  0.6593043709665811  0.6447857135606224  1.0000
  C   C4        1.0  0.8525652710873732  0.34069562956546373  0.35521428646806646  1.0000
  C   C5        1.0  0.3928063250264041  0.19921639995872142  0.6837388957303522  1.0000
  C   C6        1.0  0.6071936750475857  0.8007835999386383  0.3162611042983898  1.0000
  C   C7        1.0  0.2342820146727917  0.08567825604152876  0.6698199368745009  1.0000
  C   C8        1.0  0.7657179854011981  0.914321743855831  0.3301800631542411  1.0000
  C   C9        1.0  0.5640776464625875  0.021812584208357428  0.65134852458095  1.0000
  C   C10       1.0  0.43592235347980457  0.9781874163236874  0.3486514754477389  1.0000
  C   C11       1.0  0.4121260664827725  0.9807567204725177  0.7843759381303972  1.0000
  C   C12       1.0  0.5878739335912173  0.01924327942484211  0.21562406189834477  1.0000
  C   C13       1.0  0.4020616785015774  0.5386507575738496  0.771860068487114  1.0000
  C   C14       1.0  0.5979383214408147  0.46134924295819524  0.22813993154157491  1.0000
  C   C15       1.0  0.2592132273644037  0.5110974017592094  0.8076395683059627  1.0000
  C   C16       1.0  0.7407867727095859  0.4889025981381504  0.19236043172277928  1.0000
  C   C17       1.0  0.18772169897810304  0.46313983634502975  0.7639598148283079  1.0000
  C   C18       1.0  0.8122783010958866  0.5368601635523301  0.23604018520043404  1.0000
  C   C19       1.0  0.25791016994943633  0.44222472469821694  0.6853123924516966  1.0000
  C   C20       1.0  0.7420898301245533  0.5577752751991428  0.3146876075770454  1.0000
  C   C21       1.0  0.4000840529314488  0.4693692062887505  0.6496828149747983  1.0000
  C   C22       1.0  0.599915947142541  0.5306307936086093  0.3503171850539437  1.0000
  C   C23       1.0  0.4711112605879215  0.5179389509812878  0.6927682303940706  1.0000
  C   C24       1.0  0.5288887394860682  0.48206104891607204  0.3072317696346713  1.0000
  N   N1        1.0  0.3342172401240845  0.11748023620625124  0.7176552833204217  1.0000
  N   N2        1.0  0.6657827600710287  0.8825197643450406  0.2823447161098518  1.0000
  N   N3        1.0  0.4657575875837654  0.052426043344917246  0.7288945474159428  1.0000
  N   N4        1.0  0.5342424124902242  0.9475739565524426  0.27110545261279917  1.0000
  Cl  Cl1       1.0  0.21710563413045597  0.5536595175177184  0.10692284779273603  1.0000
  Cl  Cl2       1.0  0.7828943659435337  0.4463404823796414  0.8930771522360059  1.0000
  Cl  Cl3       1.0  0.9311914299391436  0.695725642293502  0.04146356875609389  1.0000
  Cl  Cl4       1.0  0.06880857013484631  0.30427435760385785  0.958536431272648  1.0000
  Cl  Cl5       1.0  0.11136579140006957  0.8582246092836858  0.9143163024729982  1.0000
  Cl  Cl6       1.0  0.8886342086739202  0.14177539061367395  0.08568369755574373  1.0000
  Cl  Cl7       1.0  0.5232322712142299  0.8088168470947475  0.8974024999912849  1.0000
  Cl  Cl8       1.0  0.47676772775348647  0.19118315280160975  0.10259750003774372  1.0000
  Cl  Cl9       1.0  0.5811180669426499  0.6234831371259681  0.017409180224347173  1.0000
  Cl  Cl10      1.0  0.41888193299974225  0.37651686340607676  0.9825908198043416  1.0000
  Cl  Cl11      1.0  0.4096739122574235  0.6691919208482598  0.22813554388098714  1.0000
  Cl  Cl12      1.0  0.5903260876849686  0.330808079683785  0.7718644561477018  1.0000
  Cl  Cl13      1.0  0.9997237624681321  0.7184619787958585  0.24718339647110463  1.0000
  Cl  Cl14      1.0  0.00027623760585768106  0.28153802110150133  0.7528166035576372  1.0000
  Cl  Cl15      1.0  0.9330649682102256  0.9102953493887436  0.12312838973283842  1.0000
  Cl  Cl16      1.0  0.06693503186376427  0.0897046505086162  0.8768716102959035  1.0000
  Cl  Cl17      1.0  0.30023072099465425  0.9825399716565544  0.033066064956659764  1.0000
  Cl  Cl18      1.0  0.6997692790793354  0.017460028240805628  0.966933935072082  1.0000
  Cl  Cl19      1.0  0.597295494692335  0.8355661473368858  0.09938757972971818  1.0000
  Cl  Cl20      1.0  0.40270450538165464  0.16443385256047396  0.9006124202990239  1.0000
  Cl  Cl21      1.0  0.23413364658678254  0.8926398740360768  0.23484661111361774  1.0000
  Cl  Cl22      1.0  0.7658663534872071  0.10736012586128302  0.7651533889151243  1.0000
  Cl  Cl23      1.0  0.4606186875877464  0.6857771319855905  0.5390161907626622  1.0000
  Cl  Cl24      1.0  0.5393813124862434  0.31422286791176923  0.46098380926607974  1.0000
  Cl  Cl25      1.0  0.30422392899896566  0.770005066376166  0.7328227752939337  1.0000
  Cl  Cl26      1.0  0.6957760709434263  0.2299949341558789  0.2671772247347553  1.0000
  Cl  Cl27      1.0  0.9388577402649636  0.6951708005263953  0.8084828310302585  1.0000
  Cl  Cl28      1.0  0.061142259930149774  0.30482920002489644  0.19151716840001498  1.0000
  Cl  Cl29      1.0  0.8735954340193737  0.5613459859055755  0.662913915405864  1.0000
  Cl  Cl30      1.0  0.1264045660546159  0.43865401399178444  0.337086084622878  1.0000
  Cl  Cl31      1.0  0.19181856087332566  0.5561988245202016  0.4949233385025568  1.0000
  Cl  Cl32      1.0  0.8081814392006641  0.44380117537715824  0.5050766615261851  1.0000
  Cl  Cl33      1.0  0.21278091101288293  0.7743436202607459  0.40280254663366566  1.0000
  Cl  Cl34      1.0  0.7872190890611067  0.2256563796366139  0.5971974533950762  1.0000
  Cl  Cl35      1.0  0.2916472133797417  0.9063093060456029  0.5523995439821194  1.0000
  Cl  Cl36      1.0  0.708352786694248  0.09369069385175707  0.44760045604662246  1.0000
  Cl  Cl37      1.0  0.9551668649798342  0.9157540594993478  0.7231640700169153  1.0000
  Cl  Cl38      1.0  0.044833134962558044  0.08424594103269697  0.2768359300117736  1.0000
  Cl  Cl39      1.0  0.6789861461972481  0.7852966626426674  0.6765660950217508  1.0000
  Cl  Cl40      1.0  0.32101385387674164  0.2147033372546923  0.3234339050069912  1.0000
  Cl  Cl41      1.0  0.8412562664655918  0.6964716129338028  0.47711658925502026  1.0000
  Cl  Cl42      1.0  0.15874373360839783  0.303528386963557  0.5228834107737217  1.0000
  Cl  Cl43      1.0  0.8956694466737841  0.9121393838201506  0.518468286657338  1.0000
  Cl  Cl44      1.0  0.10433055340020543  0.08786061607720934  0.48153171337140394  1.0000
  Cl  Cl45      1.0  0.49463389606511404  0.596541183079611  0.8241799585423365  1.0000
  Cl  Cl46      1.0  0.5053661040088757  0.4034588168177488  0.17582004148640548  1.0000
  Cl  Cl47      1.0  0.16938381393631258  0.5359282881898321  0.9045773906484578  1.0000
  Cl  Cl48      1.0  0.8306161861376771  0.46407171170752776  0.09542260938028431  1.0000
