data_image0
_chemical_formula_structural       H78C98N8F24P4Cl6
_chemical_formula_sum              "H78 C98 N8 F24 P4 Cl6"
_cell_length_a       10.732776092588908
_cell_length_b       11.014948222439628
_cell_length_c       21.09658558763659
_cell_angle_alpha    82.30779194780699
_cell_angle_beta     88.6375983524535
_cell_angle_gamma    66.96629857515016

_space_group_name_H-M_alt    "P 1"
_space_group_IT_number       1

loop_
  _space_group_symop_operation_xyz
  'x, y, z'

loop_
  _atom_site_type_symbol
  _atom_site_label
  _atom_site_symmetry_multiplicity
  _atom_site_fract_x
  _atom_site_fract_y
  _atom_site_fract_z
  _atom_site_occupancy
  H   H1        1.0  0.5246042537089045  0.10316648475257403  0.5134027478102643  1.0000
  H   H2        1.0  0.4753957465118223  0.8968335154611468  0.48659725255194364  1.0000
  H   H3        1.0  0.7042836030351476  0.038766411206237486  0.5248819125882567  1.0000
  H   H4        1.0  0.2957163971855793  0.9612335890074833  0.47511808777395126  1.0000
  H   H5        1.0  0.3864018374148847  0.10728636788938252  0.6006133120426344  1.0000
  H   H6        1.0  0.6135981628058421  0.8927136323243382  0.3993866883195735  1.0000
  H   H7        1.0  0.3574938425075684  0.0023259764721123575  0.7075539907824612  1.0000
  H   H8        1.0  0.6425061576812882  0.9976740238785818  0.2924460091011983  1.0000
  H   H9        1.0  0.7951977381922742  0.797252256499541  0.7241998497874411  1.0000
  H   H10       1.0  0.20480226199658216  0.20274774385115332  0.27580015009621844  1.0000
  H   H11       1.0  0.8064512975697414  0.9168510811696226  0.6182411508328686  1.0000
  H   H12       1.0  0.1935487030145759  0.08314891819486617  0.38175884904973173  1.0000
  H   H13       1.0  0.34869752523351644  0.8669932435629404  0.7812745062084798  1.0000
  H   H14       1.0  0.6513024749872104  0.1330067566507804  0.21872549415372808  1.0000
  H   H15       1.0  0.3261343591066669  0.7772240012177665  0.8907971058561064  1.0000
  H   H16       1.0  0.6738656414776504  0.22277599814672233  0.10920289402649379  1.0000
  H   H17       1.0  0.7461798994293422  0.6920536391606851  0.9321067279752586  1.0000
  H   H18       1.0  0.25382010075951433  0.3079463611900092  0.06789327190840085  1.0000
  H   H19       1.0  0.7709565401394088  0.7773225754281424  0.8223828574128554  1.0000
  H   H20       1.0  0.22904345911743715  0.2226774249233089  0.17761714247041055  1.0000
  H   H21       1.0  0.3029118971502269  0.786016093266686  0.9891359812620273  1.0000
  H   H22       1.0  0.6970881030386296  0.21398390708400836  0.010864018621632188  1.0000
  H   H23       1.0  0.2780266606924404  0.6908694518985719  0.09792222933849806  1.0000
  H   H24       1.0  0.7219733385644055  0.30913054845287946  0.9020777705447679  1.0000
  H   H25       1.0  0.7085329341993403  0.45285115084922173  0.11112301639813361  1.0000
  H   H26       1.0  0.2914670659895161  0.5471488495014725  0.8888769834855259  1.0000
  H   H27       1.0  0.7314695830758644  0.5435952188712474  0.0018007649620115716  1.0000
  H   H28       1.0  0.26853041618098167  0.45640478148020386  0.9981992349212543  1.0000
  H   H29       1.0  0.2667948741684959  0.5422587690030838  0.17263671900722005  1.0000
  H   H30       1.0  0.7332051260203607  0.45774123134761047  0.8273632808764393  1.0000
  H   H31       1.0  0.2528124807731882  0.46853012882247025  0.2876384399245759  1.0000
  H   H32       1.0  0.7471875194475387  0.5314698713912506  0.7123615604376321  1.0000
  H   H33       1.0  0.6606558218542027  0.38657361526169964  0.3215401631342965  1.0000
  H   H34       1.0  0.33934417873011463  0.613426384102789  0.6784598367483038  1.0000
  H   H35       1.0  0.6900568120844294  0.46069725771813785  0.20894482277940551  1.0000
  H   H36       1.0  0.3099431871724164  0.5393027426333133  0.7910551771038604  1.0000
  H   H37       1.0  0.5269403516608101  0.31615840750312224  0.3981292602155647  1.0000
  H   H38       1.0  0.4730596489235074  0.6838415918613665  0.6018707396670355  1.0000
  H   H39       1.0  0.3476640737720712  0.3802702103052931  0.3855837263142835  1.0000
  H   H40       1.0  0.6523359268122461  0.6197297890591955  0.6144162735683167  1.0000
  H   H41       1.0  0.20729931854781608  0.6135737278521544  0.3976054601011623  1.0000
  H   H42       1.0  0.7927006816410405  0.3864262724985398  0.6023945397824972  1.0000
  H   H43       1.0  0.18669875240170125  0.8302224890050094  0.4295868387921134  1.0000
  H   H44       1.0  0.8133012477871552  0.16977751134568492  0.5704131610915459  1.0000
  H   H45       1.0  0.6207832372429027  0.6785581685540648  0.4549358718600217  1.0000
  H   H46       1.0  0.3792167620458136  0.3214418316604131  0.5450641285017926  1.0000
  H   H47       1.0  0.6410718395264353  0.464076573177782  0.4228491745337155  1.0000
  H   H48       1.0  0.35892816066242106  0.5359234271729122  0.5771508253499439  1.0000
  H   H49       1.0  0.917758212126576  0.14560905459110215  0.22217861139156853  1.0000
  H   H50       1.0  0.0822417875257309  0.8543909447741436  0.7778213884906382  1.0000
  H   H51       1.0  0.9123601877167179  0.025559430438236157  0.12948815178696865  1.0000
  H   H52       1.0  0.08763981286759925  0.9744405689262525  0.8705118480956318  1.0000
  H   H53       1.0  0.9422881832545121  0.11752706603381206  0.019457171894511342  1.0000
  H   H54       1.0  0.057711816397794616  0.8824729333314336  0.9805428279876953  1.0000
  H   H55       1.0  0.9569769631387681  0.3533740030634572  0.2041429685912017  1.0000
  H   H56       1.0  0.04302303708195888  0.6466259971502636  0.7958570317710062  1.0000
  H   H57       1.0  0.9714383842501638  0.29591118119806087  0.9447579662596614  1.0000
  H   H58       1.0  0.028561615006682087  0.7040888191533904  0.05524203362360458  1.0000
  H   H59       1.0  0.005636368244228801  0.47089345789416154  0.8702593819443633  1.0000
  H   H60       1.0  0.9943636319446274  0.5291065424565328  0.12974061793929628  1.0000
  H   H61       1.0  0.4498765722972859  0.9822047576607864  0.05477912112494271  1.0000
  H   H62       1.0  0.5501234278915706  0.01779524268990778  0.9452208787587167  1.0000
  H   H63       1.0  0.8161267664335011  0.7540593910376887  0.1692768492873701  1.0000
  H   H64       1.0  0.18387323375535533  0.24594060931300543  0.8307231505962893  1.0000
  H   H65       1.0  0.6776766899064403  0.7083264807830176  0.2577761183542035  1.0000
  H   H66       1.0  0.3223233103142867  0.2916735194307032  0.7422238820080045  1.0000
  H   H67       1.0  0.9860606342056931  0.7019917151747023  0.44082167312910303  1.0000
  H   H68       1.0  0.013939365983163114  0.29800828517599187  0.5591783267545565  1.0000
  H   H69       1.0  0.030630454679186278  0.6051522340299842  0.5187230596136239  1.0000
  H   H70       1.0  0.9693695445776597  0.39484776632146706  0.48127694026964213  1.0000
  H   H71       1.0  0.01632555870400181  0.7734002633720741  0.5075158932448761  1.0000
  H   H72       1.0  0.9836744414848547  0.22659973697861996  0.4924841066387834  1.0000
  H   H73       1.0  0.09876887821452404  0.9063774588679059  0.26346478022250286  1.0000
  H   H74       1.0  0.9012311219743324  0.0936225414827884  0.7365352196611565  1.0000
  H   H75       1.0  0.0856374135381529  0.7587905372708637  0.3043271766728633  1.0000
  H   H76       1.0  0.9143625861141539  0.24120946209438207  0.6956728232093434  1.0000
  H   H77       1.0  0.937031599885005  0.897116742277327  0.27589985638972636  1.0000
  H   H78       1.0  0.06296840030385155  0.10288325807336722  0.7241001434939331  1.0000
  C   C1        1.0  0.6075347502497416  0.09518669457499455  0.5451488626168222  1.0000
  C   C2        1.0  0.3924652494025654  0.9048133047902511  0.45485113726538456  1.0000
  C   C3        1.0  0.47289928390441527  0.03984141963465764  0.6308422042424601  1.0000
  C   C4        1.0  0.5271007157478916  0.9601585797305879  0.36915779563974666  1.0000
  C   C5        1.0  0.4594061471011062  0.9791794627774981  0.6905151059051128  1.0000
  C   C6        1.0  0.5405938521876102  0.020820537436979744  0.30948489445670163  1.0000
  C   C7        1.0  0.5743031390835086  0.891371308823614  0.7277976732580285  1.0000
  C   C8        1.0  0.42569686110534777  0.1086286915270801  0.2722023266256311  1.0000
  C   C9        1.0  0.7012056097274723  0.8672730613118733  0.7000893377456715  1.0000
  C   C10       1.0  0.29879438992483465  0.13272693805337238  0.2999106621365352  1.0000
  C   C11       1.0  0.7100114520226548  0.9314341321586973  0.6403499237280098  1.0000
  C   C12       1.0  0.2899885481662015  0.0685658681919969  0.35965007615564965  1.0000
  C   C13       1.0  0.5613688116185006  0.8315595335330033  0.792767328623723  1.0000
  C   C14       1.0  0.43863118896581665  0.16844046583148534  0.2072326712588774  1.0000
  C   C15       1.0  0.43619198191133346  0.8310016981125525  0.8141647372202027  1.0000
  C   C16       1.0  0.5638080187048542  0.16899830111496286  0.18583526314094592  1.0000
  C   C17       1.0  0.4233287354511543  0.7796150493220244  0.8765077681243049  1.0000
  C   C18       1.0  0.5766712638375621  0.22038495089245352  0.12349223223750963  1.0000
  C   C19       1.0  0.5337308602416594  0.7280719854211402  0.9207204871326125  1.0000
  C   C20       1.0  0.46626913904705697  0.27192801479333784  0.07927951322920194  1.0000
  C   C21       1.0  0.6588905783032938  0.7280920600563515  0.8991309744104503  1.0000
  C   C22       1.0  0.34110942098542263  0.27190794015812636  0.10086902595136409  1.0000
  C   C23       1.0  0.6728342970721182  0.7770729533337979  0.8364735665880026  1.0000
  C   C24       1.0  0.32716570354406965  0.22292704589371737  0.16352643377314613  1.0000
  C   C25       1.0  0.5191768225757538  0.6735073740549213  0.9867986564694147  1.0000
  C   C26       1.0  0.48082317800856356  0.3264926253095672  0.013201343413185662  1.0000
  C   C27       1.0  0.3919939955846597  0.7113980780844857  0.015382846805765824  1.0000
  C   C28       1.0  0.6080060036721863  0.2886019222669654  0.9846171530775001  1.0000
  C   C29       1.0  0.3777985415181547  0.6573380399676586  0.07708539260791959  1.0000
  C   C30       1.0  0.6222014586707018  0.3426619603830355  0.9229146072757399  1.0000
  C   C31       1.0  0.491835836113215  0.5649262705114945  0.11338668631979074  1.0000
  C   C32       1.0  0.5081641631755014  0.4350737297029834  0.8866133140420237  1.0000
  C   C33       1.0  0.6190369753820983  0.5271551735596708  0.08504756082856046  1.0000
  C   C34       1.0  0.38096302480675803  0.4728448267910234  0.9149524390550989  1.0000
  C   C35       1.0  0.6322787291050338  0.5793254549016981  0.02299784640017687  1.0000
  C   C36       1.0  0.3677212710838225  0.4206745454489962  0.9770021534834826  1.0000
  C   C37       1.0  0.4799032652201418  0.5116027499195027  0.17963355631220884  1.0000
  C   C38       1.0  0.5200967349687147  0.4883972504311914  0.8203664435714506  1.0000
  C   C39       1.0  0.3568770018178493  0.5097384377479892  0.20341125497680493  1.0000
  C   C40       1.0  0.6431229983710072  0.490261562602705  0.7965887449068544  1.0000
  C   C41       1.0  0.346947533374345  0.4682287702086402  0.26726813055276893  1.0000
  C   C42       1.0  0.6530524668145113  0.5317712301420541  0.7327318693308905  1.0000
  C   C43       1.0  0.5771822732037368  0.4217532599544538  0.2865627985751852  1.0000
  C   C44       1.0  0.4228177264804406  0.5782467392738185  0.71343720178557  1.0000
  C   C45       1.0  0.5913625282584273  0.4629170049869811  0.22324534037556382  1.0000
  C   C46       1.0  0.40863747099841863  0.5370829953644701  0.7767546595077021  1.0000
  C   C47       1.0  0.43805814390573644  0.4030925590579903  0.3784837809115282  1.0000
  C   C48       1.0  0.5619418553511094  0.5969074412934608  0.6215162189717378  1.0000
  C   C49       1.0  0.4250978061174865  0.5266032776793155  0.40620298617897443  1.0000
  C   C50       1.0  0.57490219407137  0.47339672267137867  0.5937970137046851  1.0000
  C   C51       1.0  0.29759175556515305  0.6290526608045403  0.4096717722142988  1.0000
  C   C52       1.0  0.7024082446237033  0.370947339546154  0.5903282276693607  1.0000
  C   C53       1.0  0.28619176986722594  0.7500272198292728  0.4277818723651627  1.0000
  C   C54       1.0  0.7138082307170914  0.2499727795352159  0.5722181275174376  1.0000
  C   C55       1.0  0.4029028069635501  0.7694691984306505  0.4426176365217999  1.0000
  C   C56       1.0  0.5970971932253064  0.2305308019200437  0.5573823633618595  1.0000
  C   C57       1.0  0.5300120854962865  0.6651251496071309  0.44160922013529186  1.0000
  C   C58       1.0  0.4699879141560203  0.3348748497581147  0.5583907797469149  1.0000
  C   C59       1.0  0.54128311458454  0.5442321812162068  0.4235692881224438  1.0000
  C   C60       1.0  0.4587168856043163  0.4557678191344874  0.5764307117612156  1.0000
  C   C61       1.0  0.9322835498615101  0.18577990948153303  0.1737876358529945  1.0000
  C   C62       1.0  0.06771645032734627  0.8142200908691614  0.826212364030665  1.0000
  C   C63       1.0  0.9281956436482173  0.11825337214512238  0.12112538795840978  1.0000
  C   C64       1.0  0.07180435564049925  0.8817466280693556  0.8788746124034047  1.0000
  C   C65       1.0  0.9445828617418217  0.1690583526889784  0.059909925189371535  1.0000
  C   C66       1.0  0.055417137515024105  0.8309416476624729  0.9400900746938944  1.0000
  C   C67       1.0  0.9645498924368243  0.2908600683865851  0.04729622897435175  1.0000
  C   C68       1.0  0.03545010682002164  0.7091399319648661  0.9527037709089143  1.0000
  C   C69       1.0  0.9705073437878732  0.3586734429025961  0.10093542504800121  1.0000
  C   C70       1.0  0.02949265679644421  0.6413265564618923  0.8990645748345991  1.0000
  C   C71       1.0  0.9538377659906212  0.301688752413255  0.16401049087584538  1.0000
  C   C72       1.0  0.0461622332662248  0.6983112479381962  0.8359895090074206  1.0000
  C   C73       1.0  0.9770848927307697  0.3458967625384981  0.9851796781289417  1.0000
  C   C74       1.0  0.022915106526076163  0.6541032378129532  0.014820321754324205  1.0000
  C   C75       1.0  0.996844231650778  0.46604683679781683  0.9731660846421493  1.0000
  C   C76       1.0  0.0031557676060679197  0.5339531635536345  0.02683391524111665  1.0000
  C   C77       1.0  0.01047126476341557  0.5220100058252717  0.9104883607395299  1.0000
  C   C78       1.0  0.9895287354254407  0.47798999452542257  0.08951163914412967  1.0000
  C   C79       1.0  0.4871577093826483  0.8189453897773566  0.2065343470773608  1.0000
  C   C80       1.0  0.512842291201669  0.18105460958713193  0.7934656528052395  1.0000
  C   C81       1.0  0.42324006542098563  0.8959265416906484  0.1490814859664398  1.0000
  C   C82       1.0  0.5767599347997411  0.10407345852307252  0.850918514395768  1.0000
  C   C83       1.0  0.500487819296204  0.9219625969897737  0.09904426233395469  1.0000
  C   C84       1.0  0.4995121809245229  0.07803740322394709  0.9009557380282532  1.0000
  C   C85       1.0  0.6408222344379495  0.8713080983983243  0.10695285685952279  1.0000
  C   C86       1.0  0.35917776481889635  0.12869190195312702  0.8930471430237431  1.0000
  C   C87       1.0  0.7062523641195787  0.7937110224329497  0.16365520848555698  1.0000
  C   C88       1.0  0.2937476364647388  0.20628897693153878  0.8363447913970432  1.0000
  C   C89       1.0  0.6282221308397086  0.7681903241381413  0.21330647456755422  1.0000
  C   C90       1.0  0.3717778697446088  0.23180967522634732  0.7866935253150461  1.0000
  C   C91       1.0  0.8330685247864201  0.7493067958688329  0.5066741020002988  1.0000
  C   C92       1.0  0.16693147540243627  0.25069320448186144  0.4933258978833605  1.0000
  C   C93       1.0  0.9750988327207464  0.7045166980679348  0.4924894232847436  1.0000
  C   C94       1.0  0.0249011674681098  0.2954833022827595  0.5075105765989159  1.0000
  C   C95       1.0  0.0519657040022977  0.7894470000550347  0.20537305787354784  1.0000
  C   C96       1.0  0.9480342962184292  0.21055300015868617  0.7946269424886602  1.0000
  C   C97       1.0  0.043063238283254035  0.8411775433449737  0.26537446097669204  1.0000
  C   C98       1.0  0.9569367619374729  0.1588224568687469  0.7346255393855159  1.0000
  N   N1        1.0  0.5968745637464724  0.017144675206419744  0.6067762780814114  1.0000
  N   N2        1.0  0.4031254364742544  0.9828553250073012  0.3932237222807965  1.0000
  N   N3        1.0  0.4555665788442962  0.4264284520643133  0.30813121919535696  1.0000
  N   N4        1.0  0.5444334213445602  0.5735715482863809  0.6918687806883025  1.0000
  N   N5        1.0  0.718254020712239  0.786258778625502  0.5178940021763713  1.0000
  N   N6        1.0  0.28174597947661745  0.21374122172519208  0.4821059977072882  1.0000
  N   N7        1.0  0.058605633530520375  0.7487411459367254  0.15663971067793392  1.0000
  N   N8        1.0  0.9413943661217865  0.2512588534285204  0.8433602892042728  1.0000
  F   F1        1.0  0.008206775214378579  0.9540987752823746  0.6328451146419023  1.0000
  F   F2        1.0  0.9917932254018093  0.045901223945140714  0.3671548857192464  1.0000
  F   F3        1.0  0.11835122600850183  0.967765604637086  0.5379344870365678  1.0000
  F   F4        1.0  0.8816487745758157  0.03223439472740262  0.4620655128460325  1.0000
  F   F5        1.0  0.32498400849768183  0.879232561043801  0.5937556215206542  1.0000
  F   F6        1.0  0.675015991154625  0.1207674383214447  0.4062443783615526  1.0000
  F   F7        1.0  0.21484097954111528  0.8658317669420946  0.6888581704573141  1.0000
  F   F8        1.0  0.7851590206477411  0.13416823340859965  0.31114182942634533  1.0000
  F   F9        1.0  0.1827647060649485  0.7659150561376735  0.6039912064769634  1.0000
  F   F10       1.0  0.817235294123908  0.23408494421302073  0.3960087934066961  1.0000
  F   F11       1.0  0.15307377900892663  0.06640446970003526  0.6226179272623236  1.0000
  F   F12       1.0  0.8469262216072614  0.9335955295274799  0.37738207309882515  1.0000
  F   F13       1.0  0.8698959171502629  0.5265337023355386  0.38923532751998957  1.0000
  F   F14       1.0  0.13010408210658309  0.4734662980159126  0.6107646723632764  1.0000
  F   F15       1.0  0.8932293601924786  0.658834419328455  0.2989757138420487  1.0000
  F   F16       1.0  0.10677063999637781  0.34116558102223926  0.7010242860416108  1.0000
  F   F17       1.0  0.05126634257305883  0.47385480610083364  0.26037126486687423  1.0000
  F   F18       1.0  0.9487336566837871  0.5261451942506175  0.7396287350163917  1.0000
  F   F19       1.0  0.02893064149042993  0.34072830254349507  0.350780117628196  1.0000
  F   F20       1.0  0.9710693591257579  0.6592716966840202  0.6492198827329527  1.0000
  F   F21       1.0  0.8389033336628894  0.4785008568635477  0.2881631266921776  1.0000
  F   F22       1.0  0.16109666598941744  0.5214991425016979  0.7118368731900292  1.0000
  F   F23       1.0  0.083064831666184  0.5207992859405568  0.3613963001941885  1.0000
  F   F24       1.0  0.9169351689181334  0.4792007134239318  0.6386036996884117  1.0000
  P   P1        1.0  0.16591821570005139  0.9164403094485577  0.6129020298319583  1.0000
  P   P2        1.0  0.834081784884266  0.08355968991593085  0.38709797005064195  1.0000
  P   P3        1.0  0.9598268032055112  0.4993413513416562  0.3251485779408324  1.0000
  P   P4        1.0  0.040173197378806376  0.5006586480228324  0.6748514219417678  1.0000
  Cl  Cl1       1.0  0.3945562557315898  0.7864841412340973  0.2696478856774661  1.0000
  Cl  Cl2       1.0  0.6054437444572667  0.21351585911659685  0.7303521142061934  1.0000
  Cl  Cl3       1.0  0.24985022412837996  0.9616980419907994  0.1385558878118562  1.0000
  Cl  Cl4       1.0  0.750149775128466  0.03830195836065174  0.8614441120714098  1.0000
  Cl  Cl5       1.0  0.7346069409118382  0.9071488806993903  0.04467678964067792  1.0000
  Cl  Cl6       1.0  0.2653930592770181  0.09285111965130408  0.9553232102429815  1.0000
