data_image0
_chemical_formula_structural       H24C24N8S4
_chemical_formula_sum              "H24 C24 N8 S4"
_cell_length_a       7.361452199954135
_cell_length_b       7.648753951470872
_cell_length_c       11.752518647466463
_cell_angle_alpha    109.06510112989726
_cell_angle_beta     94.27533301761815
_cell_angle_gamma    97.09559938871492

_space_group_name_H-M_alt    "P 1"
_space_group_IT_number       1

loop_
  _space_group_symop_operation_xyz
  'x, y, z'

loop_
  _atom_site_type_symbol
  _atom_site_label
  _atom_site_symmetry_multiplicity
  _atom_site_fract_x
  _atom_site_fract_y
  _atom_site_fract_z
  _atom_site_occupancy
  H   H1        1.0  0.9310287368824325  0.21806060578468767  0.3694270218847177  1.0000
  H   H2        1.0  0.06897126271904831  0.7819393936694454  0.6305729776138961  1.0000
  H   H3        1.0  0.606473897586405  0.06064629629807934  0.3278043971370489  1.0000
  H   H4        1.0  0.3935261022631323  0.9393537045392315  0.6721956035282732  1.0000
  H   H5        1.0  0.6527692887632388  0.07020375180273174  0.6996928066468867  1.0000
  H   H6        1.0  0.3472307121961277  0.9297962476251046  0.300307192903938  1.0000
  H   H7        1.0  0.9753203078439535  0.22408293378331828  0.7228992962960387  1.0000
  H   H8        1.0  0.02467969199956103  0.7759170670710879  0.2771007035218355  1.0000
  H   H9        1.0  0.9866241214846069  0.09723473546756489  0.87787816901337  1.0000
  H   H10       1.0  0.013375878358907689  0.9027652653868413  0.12212183080450417  1.0000
  H   H11       1.0  0.6785408788310473  0.9039423793169153  0.8355234743132925  1.0000
  H   H12       1.0  0.32145912213434186  0.09605762009382576  0.16447652608498006  1.0000
  H   H13       1.0  0.5749673749215648  0.24063995500259933  0.19419933606845943  1.0000
  H   H14       1.0  0.4250326249279723  0.7593600458347116  0.8058006645968626  1.0000
  H   H15       1.0  0.8905458446539274  0.41180986639723816  0.2209566075142577  1.0000
  H   H16       1.0  0.10945415519560958  0.5881901344400726  0.7790433931510644  1.0000
  H   H17       1.0  0.8065438237692538  0.6705931421406646  0.43986027812610035  1.0000
  H   H18       1.0  0.19345617607426083  0.3294068587137416  0.5601397216917738  1.0000
  H   H19       1.0  0.5872427821401608  0.5619074443581283  0.3479623453502074  1.0000
  H   H20       1.0  0.41275721770335383  0.43809255649627776  0.6520376544676668  1.0000
  H   H21       1.0  0.8325376930938196  0.6128543081796343  0.9383995338171375  1.0000
  H   H22       1.0  0.16746230651368382  0.3871456912574035  0.06160046652892409  1.0000
  H   H23       1.0  0.6374885124265599  0.44557720530570044  0.8455649602012254  1.0000
  H   H24       1.0  0.36251148717492104  0.5544227941484327  0.15443503929738836  1.0000
  C   C1        1.0  0.8626579610412103  0.18182297166001335  0.4399388034281787  1.0000
  C   C2        1.0  0.13734203856027072  0.8181770277941197  0.5600611960704351  1.0000
  C   C3        1.0  0.6802738007408857  0.09401844345323994  0.4177898494264484  1.0000
  C   C4        1.0  0.3197261988605953  0.9059815560008933  0.5822101500721654  1.0000
  C   C5        1.0  0.5967334031300842  0.0477582862530034  0.5100238733261782  1.0000
  C   C6        1.0  0.4032665964713967  0.9522417132011296  0.48997612617243563  1.0000
  C   C7        1.0  0.7062141160848527  0.0975237440239658  0.6223872937472544  1.0000
  C   C8        1.0  0.29378588488053636  0.9024762553867754  0.3776127066510183  1.0000
  C   C9        1.0  0.8875389340855466  0.1855108258967432  0.6365329865193666  1.0000
  C   C10       1.0  0.11246106687381995  0.8144891735310932  0.363467013031458  1.0000
  C   C11       1.0  0.8893552671934872  0.12412940591009299  0.945175050372425  1.0000
  C   C12       1.0  0.11064473240799375  0.8758705935440402  0.054824949126188835  1.0000
  C   C13       1.0  0.7155641693420338  0.017006095818011095  0.9223201018665613  1.0000
  C   C14       1.0  0.28443583050148086  0.982993905036395  0.0776798979513128  1.0000
  C   C15       1.0  0.5941231655210173  0.05424186145114218  0.010963920260700023  1.0000
  C   C16       1.0  0.4058768340804636  0.9457581380029909  0.9890360792379138  1.0000
  C   C17       1.0  0.66014628407758  0.19944963982372352  0.12085733598509768  1.0000
  C   C18       1.0  0.3398537157659346  0.8005503610306827  0.8791426638327765  1.0000
  C   C19       1.0  0.8371738612102928  0.2987018160099231  0.13615706658000634  1.0000
  C   C20       1.0  0.16282613839118812  0.7012981834442099  0.8638429329186075  1.0000
  C   C21       1.0  0.5982279780025064  0.5551769115653621  0.5172418769052721  1.0000
  C   C22       1.0  0.40177202295686015  0.4448230878624744  0.48275812264555273  1.0000
  C   C23       1.0  0.5956977036191463  0.5607942380150627  0.017842091516283843  1.0000
  C   C24       1.0  0.40430229734624273  0.43920576139567846  0.9821579088819887  1.0000
  N   N1        1.0  0.9663081580643117  0.22684031115091924  0.5471942700946237  1.0000
  N   N2        1.0  0.03369184154319184  0.7731596882861185  0.452805730251438  1.0000
  N   N3        1.0  0.9505381908250129  0.2640376110005849  0.0499924244807649  1.0000
  N   N4        1.0  0.04946180901850171  0.7359623898538215  0.9500075753371092  1.0000
  N   N5        1.0  0.6701944687669574  0.5996325005049843  0.42910568496151713  1.0000
  N   N6        1.0  0.32980553107655713  0.4003675003494218  0.570894314856357  1.0000
  N   N7        1.0  0.6981733502180124  0.537901351056333  0.9285178261620862  1.0000
  N   N8        1.0  0.3018266493834685  0.46209864839780007  0.07148217333652758  1.0000
  S   S1        1.0  0.7070310670633758  0.6126763531591232  0.6579683632246633  1.0000
  S   S2        1.0  0.292968932538105  0.38732364629501  0.34203163627395045  1.0000
  S   S3        1.0  0.6612442360922934  0.7092388674644101  0.15991497914472366  1.0000
  S   S4        1.0  0.33875576375122113  0.29076113338999593  0.8400850206731506  1.0000
