data_image0
_chemical_formula_structural       H78C70N10O18
_chemical_formula_sum              "H78 C70 N10 O18"
_cell_length_a       5.426396915841544
_cell_length_b       10.42176875625711
_cell_length_c       27.884459979589362
_cell_angle_alpha    80.95332102985523
_cell_angle_beta     88.12147795717642
_cell_angle_gamma    85.13107522810611

_space_group_name_H-M_alt    "P 1"
_space_group_IT_number       1

loop_
  _space_group_symop_operation_xyz
  'x, y, z'

loop_
  _atom_site_type_symbol
  _atom_site_label
  _atom_site_symmetry_multiplicity
  _atom_site_fract_x
  _atom_site_fract_y
  _atom_site_fract_z
  _atom_site_occupancy
  H   H1        1.0  0.7233979868753333  0.7997531056329314  0.4776038042306587  1.0000
  H   H2        1.0  0.2766020114115569  0.2002468949875928  0.5223961958635767  1.0000
  H   H3        1.0  0.206622980793082  0.38156585302205703  0.20051048145576927  1.0000
  H   H4        1.0  0.7933770194745174  0.6184341466231069  0.7994895186430552  1.0000
  H   H5        1.0  0.06401104291260885  0.8592835219501285  0.20946312605617684  1.0000
  H   H6        1.0  0.9359889573549905  0.14071647769503565  0.7905368740426475  1.0000
  H   H7        1.0  0.5743906199075596  0.05268729936337052  0.13028127123741187  1.0000
  H   H8        1.0  0.4256093802233056  0.947312701245099  0.8697187288605462  1.0000
  H   H9        1.0  0.432944314329579  0.055649957718745986  0.3763397826876191  1.0000
  H   H10       1.0  0.5670556858012861  0.9443500428897236  0.623660217410339  1.0000
  H   H11       1.0  0.2290295925003831  0.9987211271035038  0.4566373734539716  1.0000
  H   H12       1.0  0.7709704077672163  0.0012788725416604783  0.5433626266448527  1.0000
  H   H13       1.0  0.6884885423744368  0.8052954105153857  0.3914091748520243  1.0000
  H   H14       1.0  0.3115114578931626  0.1947045891297784  0.6085908252468  1.0000
  H   H15       1.0  0.8127346800891788  0.24530449821227396  0.29787045668077294  1.0000
  H   H16       1.0  0.18726532004168622  0.7546955023961955  0.7021295434171851  1.0000
  H   H17       1.0  0.8918213771432304  0.8598880590314605  0.31125623511415124  1.0000
  H   H18       1.0  0.10817862298763474  0.14011194157700882  0.688743764983807  1.0000
  H   H19       1.0  0.04128774697040674  0.2658636932647043  0.14638491320614638  1.0000
  H   H20       1.0  0.9587122531604584  0.7341363073437651  0.8536150868918119  1.0000
  H   H21       1.0  0.3366701968493875  0.4815739589602711  0.522536607191865  1.0000
  H   H22       1.0  0.663329803418212  0.5184260406848932  0.47746339290695927  1.0000
  H   H23       1.0  0.8137641192816076  0.6902173653168867  0.6653937896053449  1.0000
  H   H24       1.0  0.18623588104175717  0.3097826344770559  0.3346062101302888  1.0000
  H   H25       1.0  0.9759233489145491  0.37790247378493924  0.5485156073064495  1.0000
  H   H26       1.0  0.024076651353050302  0.6220975258602249  0.45148439279237473  1.0000
  H   H27       1.0  0.37515456229459043  0.7104056697765256  0.625655619083993  1.0000
  H   H28       1.0  0.6248454378362746  0.2895943308319439  0.3743443810139651  1.0000
  H   H29       1.0  0.12722962937110452  0.832245703629422  0.6157975796858203  1.0000
  H   H30       1.0  0.8727703709522603  0.16775429616452084  0.3842024200498133  1.0000
  H   H31       1.0  0.6404208197631648  0.3449162108767724  0.6103405088708962  1.0000
  H   H32       1.0  0.35957918036770037  0.6550837897316971  0.389659491227062  1.0000
  H   H33       1.0  0.14994893329801057  0.3394283076532769  0.9159445968258987  1.0000
  H   H34       1.0  0.8500510670253542  0.6605716921406658  0.08405540290973502  1.0000
  H   H35       1.0  0.46474645598648684  0.8507784814165241  0.5484656851767095  1.0000
  H   H36       1.0  0.5352535442811125  0.14922151822863994  0.45153431492211493  1.0000
  H   H37       1.0  0.16229363005750275  0.8419358273082291  0.5277102275048383  1.0000
  H   H38       1.0  0.8377063683661219  0.15806417234898978  0.47228977259026333  1.0000
  H   H39       1.0  0.27505869016859863  0.38325380643380397  0.6585665873933424  1.0000
  H   H40       1.0  0.724941310099001  0.6167461932113601  0.3414334127054819  1.0000
  H   H41       1.0  0.5454379575307958  0.30744949436335867  0.6903638343590957  1.0000
  H   H42       1.0  0.45456204260006916  0.6925505062451107  0.3096361657388625  1.0000
  H   H43       1.0  0.11667892736322144  0.47253998397555186  0.7317109067521397  1.0000
  H   H44       1.0  0.883321072823409  0.5274600167816962  0.26828909298262765  1.0000
  H   H45       1.0  0.18368168356078698  0.3023620095899295  0.7465878006498383  1.0000
  H   H46       1.0  0.8163183167625779  0.6976379902040132  0.25341219908579526  1.0000
  H   H47       1.0  0.4324044694691011  0.3795101924879698  0.004817418526149261  1.0000
  H   H48       1.0  0.5675955307984983  0.6204898071571944  0.995182581572675  1.0000
  H   H49       1.0  0.17811835178833346  0.47911848770248083  0.9784265313664794  1.0000
  H   H50       1.0  0.8218816484792659  0.5208815119426835  0.021573468732344968  1.0000
  H   H51       1.0  0.6002814758897517  0.34183430928409203  0.7781166356873157  1.0000
  H   H52       1.0  0.3997185243778478  0.6581656903610721  0.22188336441150863  1.0000
  H   H53       1.0  0.5275413165851698  0.5106779163324624  0.761953377887366  1.0000
  H   H54       1.0  0.47245868368242966  0.48932208331270177  0.23804662221145848  1.0000
  H   H55       1.0  0.462140557813833  0.15685478351192436  0.9081962692998491  1.0000
  H   H56       1.0  0.5378594425095319  0.8431452162820183  0.09180373043578452  1.0000
  H   H57       1.0  0.6062103747427523  0.1802337009491393  0.9618667757060009  1.0000
  H   H58       1.0  0.3937896255248471  0.819766298696025  0.03813322439282337  1.0000
  H   H59       1.0  0.24285320512413616  0.3298733770383965  0.8381463265630694  1.0000
  H   H60       1.0  0.757146795006729  0.670126623570073  0.1618536735348887  1.0000
  H   H61       1.0  0.16035971810998412  0.4964478220550007  0.8202296128076829  1.0000
  H   H62       1.0  0.8396402822133808  0.503552177738942  0.1797703869279507  1.0000
  H   H63       1.0  0.3193811648319741  0.9998989467052  0.9791629750922816  1.0000
  H   H64       1.0  0.6806188354913908  0.00010105308874294765  0.02083702464335204  1.0000
  H   H65       1.0  0.07168689833464321  0.10883158333759278  0.9551745810385742  1.0000
  H   H66       1.0  0.9283131019329562  0.8911684163075715  0.04482541906025011  1.0000
  H   H67       1.0  0.9058424843910853  0.2976687431726713  0.9990036828717977  1.0000
  H   H68       1.0  0.0941575140325392  0.7023312564845479  0.000996317223303823  1.0000
  H   H69       1.0  0.05276760787933202  0.3237273464929813  0.051865733335007026  1.0000
  H   H70       1.0  0.9472323923072985  0.6762726542642667  0.9481342663997605  1.0000
  H   H71       1.0  0.06681609005417262  0.08599879773383187  0.046385502447027306  1.0000
  H   H72       1.0  0.9331839100766923  0.9140012028746377  0.9536144976509308  1.0000
  H   H73       1.0  0.36785748878294705  0.13996668192909478  0.04409722132013265  1.0000
  H   H74       1.0  0.6321425114846524  0.8600333177160695  0.9559027787786916  1.0000
  H   H75       1.0  0.16484143474835486  0.8856431346276712  0.1484226103113099  1.0000
  H   H76       1.0  0.8351585653825102  0.11435686598079814  0.8515773897866482  1.0000
  H   H77       1.0  0.8834917401724857  0.9128781300255984  0.13890197996528036  1.0000
  H   H78       1.0  0.11650826009511382  0.08712186961956574  0.8610980201335439  1.0000
  C   C1        1.0  0.1798622394577854  0.9617487885085485  0.33713006273670465  1.0000
  C   C2        1.0  0.820137760809814  0.03825121113661555  0.6628699373621197  1.0000
  C   C3        1.0  0.9473251350673637  0.8971822703017311  0.42945313275343444  1.0000
  C   C4        1.0  0.05267486520023575  0.1028177293434329  0.57054686734539  1.0000
  C   C5        1.0  0.30513748335170093  0.9977369125916321  0.2904355709387574  1.0000
  C   C6        1.0  0.6948625169158984  0.0022630870535319827  0.709564429160067  1.0000
  C   C7        1.0  0.6227636411084763  0.1310762436742125  0.25489910594136195  1.0000
  C   C8        1.0  0.37723635915912324  0.8689237559709517  0.7451008941574623  1.0000
  C   C9        1.0  0.2708474961861213  0.00013041025480519872  0.37930861590153814  1.0000
  C   C10       1.0  0.7291525040814781  0.999869589390359  0.6206913841972862  1.0000
  C   C11       1.0  0.1585371803634465  0.9680696121285953  0.42444338027356293  1.0000
  C   C12       1.0  0.841462819904153  0.031930387516568834  0.5755566198252614  1.0000
  C   C13       1.0  0.8531061962659517  0.8594519597911401  0.3879105448986443  1.0000
  C   C14       1.0  0.14689380386491316  0.1405480408173292  0.6120894551993139  1.0000
  C   C15       1.0  0.7964948073131851  0.21550593566418746  0.2625788625791169  1.0000
  C   C16       1.0  0.2035051928734453  0.7844940650930607  0.7374211371556505  1.0000
  C   C17       1.0  0.9677089998555068  0.890524652831403  0.34276744793663344  1.0000
  C   C18       1.0  0.03229100046785797  0.10947534696253979  0.6572325517990003  1.0000
  C   C19       1.0  0.5924937102165502  0.09255314244324277  0.20942000866111096  1.0000
  C   C20       1.0  0.4075062899143148  0.9074468581652267  0.7905799914368471  1.0000
  C   C21       1.0  0.2702015323167317  0.9549565197479707  0.24652522623853015  1.0000
  C   C22       1.0  0.7297984680066333  0.04504348004597201  0.7534747734971035  1.0000
  C   C23       1.0  0.9503554904966909  0.2619391532866483  0.22338354139452868  1.0000
  C   C24       1.0  0.04964450963417416  0.7380608473218211  0.7766164587034295  1.0000
  C   C25       1.0  0.416848953997672  0.0016573976307918705  0.20426767840952142  1.0000
  C   C26       1.0  0.5831510462699273  0.9983426020143724  0.795732321689303  1.0000
  C   C27       1.0  0.9242548885373459  0.22744402695146768  0.17682839446777798  1.0000
  C   C28       1.0  0.07574511173025344  0.7725559726936966  0.8231716056310462  1.0000
  C   C29       1.0  0.7464946618406111  0.14477942521144455  0.16985101158993907  1.0000
  C   C30       1.0  0.25350533829025396  0.855220575397025  0.8301489885080191  1.0000
  C   C31       1.0  0.043284438627730806  0.64117987280433  0.6047821855109673  1.0000
  C   C32       1.0  0.9567155616398687  0.35882012684083414  0.39521781458785693  1.0000
  C   C33       1.0  0.851844826284721  0.6237886737150518  0.6389751639075356  1.0000
  C   C34       1.0  0.14815517398287856  0.37621132593011236  0.36102483619128867  1.0000
  C   C35       1.0  0.08539822480933722  0.5505905558839514  0.5724180585739657  1.0000
  C   C36       1.0  0.9146017753772933  0.4494094448732967  0.4275819411608017  1.0000
  C   C37       1.0  0.7069788892858389  0.5169941779373574  0.6415204499747897  1.0000
  C   C38       1.0  0.2930211109817605  0.48300582170780676  0.3584795501240345  1.0000
  C   C39       1.0  0.9406817598295315  0.44566260550033254  0.5743947202840879  1.0000
  C   C40       1.0  0.05931824049383342  0.5543373942936103  0.4256052794515457  1.0000
  C   C41       1.0  0.39767867487597003  0.672593485040377  0.5252319771427622  1.0000
  C   C42       1.0  0.6023213254473948  0.32740651475356597  0.4747680225928715  1.0000
  C   C43       1.0  0.21781484661404543  0.7469716705200876  0.602007515120271  1.0000
  C   C44       1.0  0.782185153653554  0.25302832912507645  0.39799248497855333  1.0000
  C   C45       1.0  0.7513359186328256  0.427481253384592  0.6091487580094718  1.0000
  C   C46       1.0  0.24866408149803954  0.5725187472238775  0.3908512420884863  1.0000
  C   C47       1.0  0.31967665494405845  0.32997724169660564  0.9371374331025557  1.0000
  C   C48       1.0  0.6803233451868067  0.6700227589118637  0.06286256699540248  1.0000
  C   C49       1.0  0.4902767393655323  0.45717257244692916  0.859297017599345  1.0000
  C   C50       1.0  0.5097232609020671  0.5428274271982348  0.14070298249947938  1.0000
  C   C51       1.0  0.3126224385306402  0.7873705465307057  0.5498980811593049  1.0000
  C   C52       1.0  0.6873775599487497  0.21262945327529198  0.450101918572606  1.0000
  C   C53       1.0  0.40350726428832057  0.3905831054653638  0.6876882145974704  1.0000
  C   C54       1.0  0.5964927359792789  0.6094168941798004  0.3123117855013538  1.0000
  C   C55       1.0  0.26870091264909135  0.39495176680776933  0.7359443470746667  1.0000
  C   C56       1.0  0.7312990876742734  0.6050482329861735  0.2640556526609669  1.0000
  C   C57       1.0  0.25973992866659185  0.3781778814034369  0.9854510371593963  1.0000
  C   C58       1.0  0.7402600715200387  0.6218221193538112  0.014548962575371286  1.0000
  C   C59       1.0  0.44595894212050263  0.4182534323931052  0.7744181971954582  1.0000
  C   C60       1.0  0.5540410561663875  0.5817465682274191  0.22558180289877725  1.0000
  C   C61       1.0  0.42656376139097346  0.1878486688188108  0.9438597829228421  1.0000
  C   C62       1.0  0.5734362389323914  0.8121513309751321  0.0561402168127915  1.0000
  C   C63       1.0  0.31912908388636363  0.42294952383516404  0.8238506799608258  1.0000
  C   C64       1.0  0.6808709164370013  0.5770504759587787  0.17614931977480786  1.0000
  C   C65       1.0  0.24656597559762  0.10249319582434648  0.9748053324609753  1.0000
  C   C66       1.0  0.7534340246699796  0.8975068038208175  0.02519466763784898  1.0000
  C   C67       1.0  0.08634377014145168  0.2897837165676518  0.016719789138534807  1.0000
  C   C68       1.0  0.9136562301261478  0.7102162830775125  0.9832802109602894  1.0000
  C   C69       1.0  0.19400508154695453  0.14798464893720056  0.023973466811412474  1.0000
  C   C70       1.0  0.805994918720645  0.8520153507079634  0.9760265332874118  1.0000
  N   N1        1.0  0.27989425096819714  0.5641710250107899  0.5378133133022536  1.0000
  N   N2        1.0  0.7201057492994023  0.43582897463437426  0.46218668679657077  1.0000
  N   N3        1.0  0.4886819934680799  0.41500384504156523  0.9076400850925341  1.0000
  N   N4        1.0  0.5113180066627852  0.5849961555669041  0.09235991500542401  1.0000
  N   N5        1.0  0.6777531707866906  0.5329863964746344  0.8496918619037722  1.0000
  N   N6        1.0  0.3222468294809089  0.46701360317052976  0.15030813819505204  1.0000
  N   N7        1.0  0.6776087199240995  0.4634449445548229  0.9276795233288376  1.0000
  N   N8        1.0  0.3223912783627907  0.5365550560657013  0.0723204767653978  1.0000
  N   N9        1.0  0.7892704245122771  0.5343786914356059  0.8924799768599893  1.0000
  N   N10       1.0  0.21072957575532236  0.4656213082095582  0.10752002323883493  1.0000
  O   O1        1.0  0.47876437337607564  0.08404250869202247  0.29350456912941447  1.0000
  O   O2        1.0  0.5212356269472892  0.9159574911019204  0.7064954306062192  1.0000
  O   O3        1.0  0.8445051486051135  0.8699450165577292  0.4743597513204483  1.0000
  O   O4        1.0  0.15549485152575174  0.1300549840507401  0.5256402487775099  1.0000
  O   O5        1.0  0.12338172623031549  0.3401832184218065  0.23190615429328254  1.0000
  O   O6        1.0  0.8766182739563149  0.6598167823354416  0.768093845441485  1.0000
  O   O7        1.0  0.1015650231151825  0.8675658508248566  0.24396943869549909  1.0000
  O   O8        1.0  0.898434977152417  0.13243414882030766  0.7560305614033251  1.0000
  O   O9        1.0  0.3942048217773005  0.9625528592160519  0.16292479103870786  1.0000
  O   O10       1.0  0.605795176646324  0.03744714044116713  0.8370752090563938  1.0000
  O   O11       1.0  0.7188044394749908  0.11015747935603556  0.125411886173442  1.0000
  O   O12       1.0  0.2811955607116396  0.8898425214012124  0.8745881135613255  1.0000
  O   O13       1.0  0.5242694792866733  0.5100008404907226  0.6762794657927719  1.0000
  O   O14       1.0  0.4757305208441918  0.4899991601177468  0.3237205343051862  1.0000
  O   O15       1.0  0.5671047036382657  0.6765438471157958  0.4926515725122413  1.0000
  O   O16       1.0  0.4328952947853588  0.3234561525414232  0.5073484275828604  1.0000
  O   O17       1.0  0.005424574575882418  0.8423445620153427  0.15168600720858935  1.0000
  O   O18       1.0  0.9945754256107481  0.1576554387419054  0.8483139925261781  1.0000
