data_image0
_chemical_formula_structural       H96B4C24N20O24
_chemical_formula_sum              "H96 B4 C24 N20 O24"
_cell_length_a       16.241422824408318
_cell_length_b       6.896200244545068
_cell_length_c       12.94114765987134
_cell_angle_alpha    90.0
_cell_angle_beta     90.0
_cell_angle_gamma    90.0

_space_group_name_H-M_alt    "P 1"
_space_group_IT_number       1

loop_
  _space_group_symop_operation_xyz
  'x, y, z'

loop_
  _atom_site_type_symbol
  _atom_site_label
  _atom_site_symmetry_multiplicity
  _atom_site_fract_x
  _atom_site_fract_y
  _atom_site_fract_z
  _atom_site_occupancy
  H   H1        1.0  0.8549840220360052  0.9560176454004524  0.18540371635198957  1.0000
  H   H2        1.0  0.6450159781725677  0.04398235394047914  0.6854037163569605  1.0000
  H   H3        1.0  0.35498402217171743  0.5439823536109449  0.31459628365298137  1.0000
  H   H4        1.0  0.14501597830827997  0.4560176457299866  0.8145962836579522  1.0000
  H   H5        1.0  0.14501597830827997  0.04398235394047914  0.8145962836579522  1.0000
  H   H6        1.0  0.35498402217171743  0.9560176454004524  0.31459628365298137  1.0000
  H   H7        1.0  0.6450159781725677  0.4560176457299866  0.6854037163569605  1.0000
  H   H8        1.0  0.8549840220360052  0.5439823536109449  0.18540371635198957  1.0000
  H   H9        1.0  0.8766766448935618  0.0772125795536737  0.3051255277956744  1.0000
  H   H10       1.0  0.6233233553150113  0.9227874197872579  0.8051255278006453  1.0000
  H   H11       1.0  0.37667664502927395  0.4227874201167921  0.1948744722092965  1.0000
  H   H12       1.0  0.12332335545072345  0.5772125792241395  0.6948744722142675  1.0000
  H   H13       1.0  0.12332335545072345  0.9227874197872579  0.6948744722142675  1.0000
  H   H14       1.0  0.37667664502927395  0.0772125795536737  0.1948744722092965  1.0000
  H   H15       1.0  0.6233233553150113  0.5772125792241395  0.8051255278006453  1.0000
  H   H16       1.0  0.8766766448935618  0.4227874201167921  0.3051255277956744  1.0000
  H   H17       1.0  0.7774367484001511  0.04489092819554899  0.04137126119503089  1.0000
  H   H18       1.0  0.7225632518084221  0.9551090725954564  0.5413712612000018  1.0000
  H   H19       1.0  0.27743674792015366  0.4551090729249907  0.45862873880994  1.0000
  H   H20       1.0  0.22256325194413418  0.5448909278660148  0.958628738814911  1.0000
  H   H21       1.0  0.22256325194413418  0.9551090725954564  0.958628738814911  1.0000
  H   H22       1.0  0.27743674792015366  0.04489092819554899  0.45862873880994  1.0000
  H   H23       1.0  0.7225632518084221  0.5448909278660148  0.5413712612000018  1.0000
  H   H24       1.0  0.7774367484001511  0.4551090729249907  0.04137126119503089  1.0000
  H   H25       1.0  0.6939713584121046  0.9175563608387398  0.9817680667841412  1.0000
  H   H26       1.0  0.8060286417964685  0.08244363850219176  0.4817680667791703  1.0000
  H   H27       1.0  0.19397135854781672  0.5824436381726575  0.5182319324580426  1.0000
  H   H28       1.0  0.3060286413164711  0.417556361168274  0.0182319332258006  1.0000
  H   H29       1.0  0.3060286413164711  0.08244363850219176  0.0182319332258006  1.0000
  H   H30       1.0  0.19397135854781672  0.9175563608387398  0.5182319324580426  1.0000
  H   H31       1.0  0.8060286417964685  0.417556361168274  0.4817680667791703  1.0000
  H   H32       1.0  0.6939713584121046  0.5824436381726575  0.9817680667841412  1.0000
  H   H33       1.0  0.7075279878023021  0.7499999995056987  0.37955389422152946  1.0000
  H   H34       1.0  0.7924720124062709  0.24999999983523288  0.8795538942265003  1.0000
  H   H35       1.0  0.20752798793801433  0.7499999995056987  0.1204461057834415  1.0000
  H   H36       1.0  0.2924720125419831  0.24999999983523288  0.6204461057884123  1.0000
  H   H37       1.0  0.6950251570961877  0.8808268603866094  0.2604503053814556  1.0000
  H   H38       1.0  0.8049748431123853  0.11917313895432219  0.7604503053864264  1.0000
  H   H39       1.0  0.1950251566161903  0.6191731400748618  0.23954969462351533  1.0000
  H   H40       1.0  0.30497484324809754  0.3808268607161436  0.7395496946284862  1.0000
  H   H41       1.0  0.30497484324809754  0.11917313895432219  0.7395496946284862  1.0000
  H   H42       1.0  0.1950251566161903  0.8808268603866094  0.23954969462351533  1.0000
  H   H43       1.0  0.8049748431123853  0.3808268607161436  0.7604503053864264  1.0000
  H   H44       1.0  0.6950251570961877  0.6191731400748618  0.2604503053814556  1.0000
  H   H45       1.0  0.47875175987133806  0.7499999995056987  0.22662635007977008  1.0000
  H   H46       1.0  0.021248239992949766  0.24999999983523288  0.7266263500847411  1.0000
  H   H47       1.0  0.9787517597356259  0.7499999995056987  0.2733736499252008  1.0000
  H   H48       1.0  0.5212482404729472  0.24999999983523288  0.7733736499301718  1.0000
  H   H49       1.0  0.564373284231268  0.8811772750953342  0.17380816980975256  1.0000
  H   H50       1.0  0.935626715977305  0.1188227256956713  0.6738081698147235  1.0000
  H   H51       1.0  0.06437328436698023  0.6188227253661371  0.32619183019521836  1.0000
  H   H52       1.0  0.4356267161130172  0.3811772739747945  0.8261918302001893  1.0000
  H   H53       1.0  0.4356267161130172  0.1188227256956713  0.8261918302001893  1.0000
  H   H54       1.0  0.06437328436698023  0.8811772750953342  0.32619183019521836  1.0000
  H   H55       1.0  0.935626715977305  0.3811772739747945  0.6738081698147235  1.0000
  H   H56       1.0  0.564373284231268  0.6188227253661371  0.17380816980975256  1.0000
  H   H57       1.0  0.5931178403608206  0.5727667686454441  0.4523983717575637  1.0000
  H   H58       1.0  0.9068821598477526  0.4272332321455613  0.9523983717625345  1.0000
  H   H59       1.0  0.09311784049653274  0.9272332318160271  0.047601628247407254  1.0000
  H   H60       1.0  0.40688215998346466  0.07276676752490442  0.5476016282523781  1.0000
  H   H61       1.0  0.40688215998346466  0.4272332321455613  0.5476016282523781  1.0000
  H   H62       1.0  0.09311784049653274  0.5727667686454441  0.047601628247407254  1.0000
  H   H63       1.0  0.9068821598477526  0.07276676752490442  0.9523983717625345  1.0000
  H   H64       1.0  0.5931178403608206  0.9272332318160271  0.4523983717575637  1.0000
  H   H65       1.0  0.5793839604901002  0.44449896628577623  0.33195889212523744  1.0000
  H   H66       1.0  0.9206160397184728  0.5555010330551553  0.8319588921302083  1.0000
  H   H67       1.0  0.07938396062581235  0.05550103338468954  0.16804110787973342  1.0000
  H   H68       1.0  0.42061603923847546  0.944498965956242  0.6680411078847043  1.0000
  H   H69       1.0  0.42061603923847546  0.5555010330551553  0.6680411078847043  1.0000
  H   H70       1.0  0.07938396062581235  0.44449896628577623  0.16804110787973342  1.0000
  H   H71       1.0  0.9206160397184728  0.944498965956242  0.8319588921302083  1.0000
  H   H72       1.0  0.5793839604901002  0.05550103338468954  0.33195889212523744  1.0000
  H   H73       1.0  0.49452591850077654  0.5762603287431308  0.3884914840736763  1.0000
  H   H74       1.0  0.005474081363511261  0.42373967204787466  0.8884914840786471  1.0000
  H   H75       1.0  0.9945259183650644  0.9237396717183405  0.11150851593129465  1.0000
  H   H76       1.0  0.5054740812277991  0.07626032762259113  0.6115085159362655  1.0000
  H   H77       1.0  0.5054740812277991  0.42373967204787466  0.6115085159362655  1.0000
  H   H78       1.0  0.9945259183650644  0.5762603287431308  0.11150851593129465  1.0000
  H   H79       1.0  0.005474081363511261  0.07626032762259113  0.8884914840786471  1.0000
  H   H80       1.0  0.49452591850077654  0.9237396717183405  0.3884914840736763  1.0000
  H   H81       1.0  0.5617462182124043  0.049629083823475584  0.9617335113633759  1.0000
  H   H82       1.0  0.938253781380459  0.950370915517456  0.46173351135840496  1.0000
  H   H83       1.0  0.061746218348116555  0.4503709158469902  0.5382664886515368  1.0000
  H   H84       1.0  0.4382537815161713  0.5496290834939414  0.038266488646565934  1.0000
  H   H85       1.0  0.4382537815161713  0.950370915517456  0.038266488646565934  1.0000
  H   H86       1.0  0.061746218348116555  0.049629083823475584  0.5382664886515368  1.0000
  H   H87       1.0  0.938253781380459  0.5496290834939414  0.46173351135840496  1.0000
  H   H88       1.0  0.5617462182124043  0.4503709158469902  0.9617335113633759  1.0000
  H   H89       1.0  0.4020237211106454  0.7499999995056987  0.8884508972610167  1.0000
  H   H90       1.0  0.09797627875364243  0.24999999983523288  0.3884508972560458  1.0000
  H   H91       1.0  0.9020237209749332  0.7499999995056987  0.6115491027538961  1.0000
  H   H92       1.0  0.5979762792336398  0.24999999983523288  0.1115491027489251  1.0000
  H   H93       1.0  0.31423908885186785  0.7499999995056987  0.8399731133357665  1.0000
  H   H94       1.0  0.18576091101241995  0.24999999983523288  0.3399731133307956  1.0000
  H   H95       1.0  0.8142390887161557  0.7499999995056987  0.6600268866791462  1.0000
  H   H96       1.0  0.6857609108767078  0.24999999983523288  0.1600268866741753  1.0000
  B   B1        1.0  0.5419961209784395  0.7499999995056987  0.9600392195914035  1.0000
  B   B2        1.0  0.9580038786144238  0.24999999983523288  0.4600392195864325  1.0000
  B   B3        1.0  0.04199612111415173  0.7499999995056987  0.5399607804235093  1.0000
  B   B4        1.0  0.4580038787501361  0.24999999983523288  0.039960780418538344  1.0000
  C   C1        1.0  0.8476216473664475  0.24999999983523288  0.17887367185971925  1.0000
  C   C2        1.0  0.6523783522264158  0.7499999995056987  0.6788736718646902  1.0000
  C   C3        1.0  0.34762164750215974  0.24999999983523288  0.32112632814525166  1.0000
  C   C4        1.0  0.15237835236212807  0.7499999995056987  0.8211263281502226  1.0000
  C   C5        1.0  0.7867063143506011  0.7499999995056987  0.04547301719033553  1.0000
  C   C6        1.0  0.7132936852422622  0.24999999983523288  0.5454730171953064  1.0000
  C   C7        1.0  0.2867063144863134  0.7499999995056987  0.4545269828146354  1.0000
  C   C8        1.0  0.21329368537797438  0.24999999983523288  0.9545269828196062  1.0000
  C   C9        1.0  0.678124579297826  0.7499999995056987  0.3035575803049801  1.0000
  C   C10       1.0  0.8218754209107471  0.24999999983523288  0.803557580309951  1.0000
  C   C11       1.0  0.1781245794335382  0.7499999995056987  0.19644241969999082  1.0000
  C   C12       1.0  0.3218754210464592  0.24999999983523288  0.6964424197049618  1.0000
  C   C13       1.0  0.545431984363274  0.7499999995056987  0.21515636504434119  1.0000
  C   C14       1.0  0.9545680152295893  0.24999999983523288  0.715156365049312  1.0000
  C   C15       1.0  0.045431984498986236  0.7499999995056987  0.28484363496062975  1.0000
  C   C16       1.0  0.45456801536530156  0.24999999983523288  0.7848436349656006  1.0000
  C   C17       1.0  0.5614202818669726  0.57158454659404  0.3776996962299242  1.0000
  C   C18       1.0  0.9385797183416005  0.42841545274689163  0.8776996962348951  1.0000
  C   C19       1.0  0.061420281386975174  0.9284154524173573  0.12230030377504672  1.0000
  C   C20       1.0  0.4385797184773126  0.07158454692357416  0.6223003037800177  1.0000
  C   C21       1.0  0.4385797184773126  0.42841545274689163  0.6223003037800177  1.0000
  C   C22       1.0  0.061420281386975174  0.57158454659404  0.12230030377504672  1.0000
  C   C23       1.0  0.9385797183416005  0.07158454692357416  0.8776996962348951  1.0000
  C   C24       1.0  0.5614202818669726  0.9284154524173573  0.3776996962299242  1.0000
  N   N1        1.0  0.8571065029524058  0.08078919553426536  0.2295348695549566  1.0000
  N   N2        1.0  0.6428934972561672  0.91921080525674  0.7295348695599274  1.0000
  N   N3        1.0  0.35710650308811803  0.41921080413620043  0.2704651304500143  1.0000
  N   N4        1.0  0.14289349677616975  0.5807891952047312  0.7704651304549852  1.0000
  N   N5        1.0  0.14289349677616975  0.91921080525674  0.7704651304549852  1.0000
  N   N6        1.0  0.35710650308811803  0.08078919553426536  0.2704651304500143  1.0000
  N   N7        1.0  0.6428934972561672  0.5807891952047312  0.7295348695599274  1.0000
  N   N8        1.0  0.8571065029524058  0.41921080413620043  0.2295348695549566  1.0000
  N   N9        1.0  0.7509056178053353  0.917463576410024  0.016163293665878747  1.0000
  N   N10       1.0  0.7490943824032379  0.08253642293090757  0.5161632936708497  1.0000
  N   N11       1.0  0.2509056173253378  0.5825364226013734  0.48383670633909215  1.0000
  N   N12       1.0  0.24909438253895005  0.4174635767395582  0.9838367063440631  1.0000
  N   N13       1.0  0.24909438253895005  0.08253642293090757  0.9838367063440631  1.0000
  N   N14       1.0  0.2509056173253378  0.917463576410024  0.48383670633909215  1.0000
  N   N15       1.0  0.7490943824032379  0.4174635767395582  0.5161632936708497  1.0000
  N   N16       1.0  0.7509056178053353  0.5825364226013734  0.016163293665878747  1.0000
  N   N17       1.0  0.5865371638304752  0.7499999995056987  0.31892692274875356  1.0000
  N   N18       1.0  0.9134628363780979  0.24999999983523288  0.8189269227537244  1.0000
  N   N19       1.0  0.08653716396618732  0.7499999995056987  0.18107307725621738  1.0000
  N   N20       1.0  0.41346283589810046  0.24999999983523288  0.6810730772611883  1.0000
  O   O1        1.0  0.827370140860152  0.24999999983523288  0.08299862564203819  1.0000
  O   O2        1.0  0.6726298593484209  0.7499999995056987  0.5829986256470091  1.0000
  O   O3        1.0  0.3273701409958643  0.24999999983523288  0.4170013743629327  1.0000
  O   O4        1.0  0.1726298588684235  0.7499999995056987  0.9170013743679036  1.0000
  O   O5        1.0  0.8533230678023984  0.7499999995056987  0.09889185825213923  1.0000
  O   O6        1.0  0.6466769324061746  0.24999999983523288  0.5988918582571101  1.0000
  O   O7        1.0  0.3533230679381106  0.7499999995056987  0.4011081417528317  1.0000
  O   O8        1.0  0.14667693254188685  0.24999999983523288  0.9011081417578025  1.0000
  O   O9        1.0  0.4647921953398814  0.7499999995056987  0.9993428241377916  1.0000
  O   O10       1.0  0.03520780514011597  0.24999999983523288  0.4993428241328208  1.0000
  O   O11       1.0  0.9647921952041693  0.7499999995056987  0.5006571758771211  1.0000
  O   O12       1.0  0.5352078050044038  0.24999999983523288  0.0006571758721501637  1.0000
  O   O13       1.0  0.5858880599856965  0.9188506373509482  0.9370954623757508  1.0000
  O   O14       1.0  0.914111939607167  0.08114936344005734  0.43709546237077984  1.0000
  O   O15       1.0  0.08588806012140862  0.5811493631105231  0.5629045376391619  1.0000
  O   O16       1.0  0.41411193974287913  0.41885063768048236  0.06290453763419103  1.0000
  O   O17       1.0  0.41411193974287913  0.08114936344005734  0.06290453763419103  1.0000
  O   O18       1.0  0.08588806012140862  0.9188506373509482  0.5629045376391619  1.0000
  O   O19       1.0  0.914111939607167  0.41885063768048236  0.43709546237077984  1.0000
  O   O20       1.0  0.5858880599856965  0.5811493631105231  0.9370954623757508  1.0000
  O   O21       1.0  0.3722296614872005  0.7499999995056987  0.8208896281232615  1.0000
  O   O22       1.0  0.12777033837708732  0.24999999983523288  0.32088962811829047  1.0000
  O   O23       1.0  0.8722296613514883  0.7499999995056987  0.6791103718916514  1.0000
  O   O24       1.0  0.6277703382413752  0.24999999983523288  0.17911037188668041  1.0000
