data_image0
_chemical_formula_structural       H56C32N8O32
_chemical_formula_sum              "H56 C32 N8 O32"
_cell_length_a       9.445573383578997
_cell_length_b       8.094549378130175
_cell_length_c       14.799319997985226
_cell_angle_alpha    90.0
_cell_angle_beta     90.0
_cell_angle_gamma    90.0

_space_group_name_H-M_alt    "P 1"
_space_group_IT_number       1

loop_
  _space_group_symop_operation_xyz
  'x, y, z'

loop_
  _atom_site_type_symbol
  _atom_site_label
  _atom_site_symmetry_multiplicity
  _atom_site_fract_x
  _atom_site_fract_y
  _atom_site_fract_z
  _atom_site_occupancy
  H   H1        1.0  0.8938314824463287  0.9029524966204312  0.44116784560972083  1.0000
  H   H2        1.0  0.3938314826357823  0.5970475024906666  0.5588321545264188  1.0000
  H   H3        1.0  0.10616851717476394  0.4029524977403314  0.058832154458349  1.0000
  H   H4        1.0  0.6061685180440072  0.09704750237516765  0.9411678456777907  1.0000
  H   H5        1.0  0.10616851717476394  0.09704750237516765  0.5588321545264188  1.0000
  H   H6        1.0  0.6061685180440072  0.4029524977403314  0.44116784560972083  1.0000
  H   H7        1.0  0.8938314824463287  0.5970475024906666  0.9411678456777907  1.0000
  H   H8        1.0  0.3938314826357823  0.9029524966204312  0.058832154458349  1.0000
  H   H9        1.0  0.7747645582556598  0.2211132907331085  0.6494182726847201  1.0000
  H   H10       1.0  0.2747645584451135  0.2788867093823905  0.35058172745141963  1.0000
  H   H11       1.0  0.2252354424241298  0.7211132908486075  0.8505817275194896  1.0000
  H   H12       1.0  0.7252354422346761  0.7788867094978895  0.14941827261665025  1.0000
  H   H13       1.0  0.2252354424241298  0.7788867094978895  0.35058172745141963  1.0000
  H   H14       1.0  0.7252354422346761  0.7211132908486075  0.6494182726847201  1.0000
  H   H15       1.0  0.7747645582556598  0.2788867093823905  0.14941827261665025  1.0000
  H   H16       1.0  0.2747645584451135  0.2211132907331085  0.8505817275194896  1.0000
  H   H17       1.0  0.5158406061902626  0.5484213836527922  0.733403048348008  1.0000
  H   H18       1.0  0.015840606379716304  0.9515786154583055  0.2665969517881317  1.0000
  H   H19       1.0  0.4841593934308299  0.0484213847726925  0.7665969511804949  1.0000
  H   H20       1.0  0.9841593943000734  0.4515786153428065  0.23340304827993819  1.0000
  H   H21       1.0  0.4841593934308299  0.4515786153428065  0.2665969517881317  1.0000
  H   H22       1.0  0.9841593943000734  0.0484213847726925  0.733403048348008  1.0000
  H   H23       1.0  0.5158406061902626  0.9515786154583055  0.23340304827993819  1.0000
  H   H24       1.0  0.015840606379716304  0.5484213836527922  0.7665969511804949  1.0000
  H   H25       1.0  0.452642768879743  0.39210298705141305  0.8062135693818594  1.0000
  H   H26       1.0  0.9526427686902892  0.10789701306408592  0.19378643075428034  1.0000
  H   H27       1.0  0.5473572318000466  0.8921029871669122  0.6937864301466434  1.0000
  H   H28       1.0  0.04735723093080333  0.6078970131795849  0.3062135693137895  1.0000
  H   H29       1.0  0.5473572318000466  0.6078970131795849  0.19378643075428034  1.0000
  H   H30       1.0  0.04735723093080333  0.8921029871669122  0.8062135693818594  1.0000
  H   H31       1.0  0.452642768879743  0.10789701306408592  0.3062135693137895  1.0000
  H   H32       1.0  0.9526427686902892  0.39210298705141305  0.6937864301466434  1.0000
  H   H33       1.0  0.6271645838143263  0.516616687928091  0.921213801164921  1.0000
  H   H34       1.0  0.12716458400378003  0.9833833111830067  0.07878619829551199  1.0000
  H   H35       1.0  0.37283541580676627  0.016616689047991243  0.5787861983635818  1.0000
  H   H36       1.0  0.8728354166760096  0.48338331106750776  0.4212138010968512  1.0000
  H   H37       1.0  0.37283541580676627  0.48338331106750776  0.07878619829551199  1.0000
  H   H38       1.0  0.8728354166760096  0.016616689047991243  0.921213801164921  1.0000
  H   H39       1.0  0.6271645838143263  0.9833833111830067  0.4212138010968512  1.0000
  H   H40       1.0  0.12716458400378003  0.516616687928091  0.5787861983635818  1.0000
  H   H41       1.0  0.6281636306288273  0.6842905702651361  0.8515516997886177  1.0000
  H   H42       1.0  0.128163630818281  0.8157094288459616  0.14844830034752204  1.0000
  H   H43       1.0  0.37183637005096226  0.1842905713850363  0.6484483004155919  1.0000
  H   H44       1.0  0.8718363698615086  0.31570942873046276  0.3515516997205478  1.0000
  H   H45       1.0  0.37183637005096226  0.31570942873046276  0.14844830034752204  1.0000
  H   H46       1.0  0.8718363698615086  0.1842905713850363  0.8515516997886177  1.0000
  H   H47       1.0  0.6281636306288273  0.8157094288459616  0.3515516997205478  1.0000
  H   H48       1.0  0.128163630818281  0.6842905702651361  0.6484483004155919  1.0000
  H   H49       1.0  0.4742984610959094  0.615694872831975  0.8989992298167269  1.0000
  H   H50       1.0  0.9742984619651526  0.8843051262791228  0.10100077031941292  1.0000
  H   H51       1.0  0.5257015385251832  0.11569487271647594  0.6010007703874828  1.0000
  H   H52       1.0  0.025701538714636957  0.38430512616362383  0.398999229748657  1.0000
  H   H53       1.0  0.5257015385251832  0.38430512616362383  0.10100077031941292  1.0000
  H   H54       1.0  0.025701538714636957  0.11569487271647594  0.8989992298167269  1.0000
  H   H55       1.0  0.4742984610959094  0.8843051262791228  0.398999229748657  1.0000
  H   H56       1.0  0.9742984619651526  0.615694872831975  0.6010007703874828  1.0000
  C   C1        1.0  0.8191907918953797  0.07242412673198374  0.5465522227440976  1.0000
  C   C2        1.0  0.31919079208483336  0.42757587214811604  0.453447777392042  1.0000
  C   C3        1.0  0.18080920772571293  0.5724241268474827  0.9534477774601119  1.0000
  C   C4        1.0  0.6808092085949562  0.927575872263615  0.046552222676027835  1.0000
  C   C5        1.0  0.18080920772571293  0.927575872263615  0.453447777392042  1.0000
  C   C6        1.0  0.6808092085949562  0.5724241268474827  0.5465522227440976  1.0000
  C   C7        1.0  0.8191907918953797  0.42757587214811604  0.046552222676027835  1.0000
  C   C8        1.0  0.31919079208483336  0.07242412673198374  0.9534477774601119  1.0000
  C   C9        1.0  0.9305453224555417  0.9877177007037863  0.4932819609950898  1.0000
  C   C10       1.0  0.43054532158629844  0.5122822996427107  0.50671803914105  1.0000
  C   C11       1.0  0.06945467822424793  0.48771770058828734  0.006718039072980066  1.0000
  C   C12       1.0  0.5694546780347942  0.012282299527211698  0.9932819610631597  1.0000
  C   C13       1.0  0.06945467822424793  0.012282299527211698  0.50671803914105  1.0000
  C   C14       1.0  0.5694546780347942  0.48771770058828734  0.4932819609950898  1.0000
  C   C15       1.0  0.9305453224555417  0.5122822996427107  0.9932819610631597  1.0000
  C   C16       1.0  0.43054532158629844  0.9877177007037863  0.006718039072980066  1.0000
  C   C17       1.0  0.6694570147528741  0.3633396465461282  0.7687046932932572  1.0000
  C   C18       1.0  0.16945701494232782  0.13666035356937078  0.2312953068428825  1.0000
  C   C19       1.0  0.3305429859269155  0.8633396454262281  0.7312953069109523  1.0000
  C   C20       1.0  0.8305429857374618  0.6366603536848698  0.26870469322518736  1.0000
  C   C21       1.0  0.3305429859269155  0.6366603536848698  0.2312953068428825  1.0000
  C   C22       1.0  0.8305429857374618  0.8633396454262281  0.7687046932932572  1.0000
  C   C23       1.0  0.6694570147528741  0.13666035356937078  0.26870469322518736  1.0000
  C   C24       1.0  0.16945701494232782  0.3633396465461282  0.7312953069109523  1.0000
  C   C25       1.0  0.5430724628022894  0.4722121184815051  0.7917945366135261  1.0000
  C   C26       1.0  0.043072462991743096  0.02778788163399387  0.2082054635226137  1.0000
  C   C27       1.0  0.4569275378775001  0.9722121185970042  0.7082054635906836  1.0000
  C   C28       1.0  0.9569275376880465  0.5277878817494929  0.2917945365454562  1.0000
  C   C29       1.0  0.4569275378775001  0.5277878817494929  0.2082054635226137  1.0000
  C   C30       1.0  0.9569275376880465  0.9722121185970042  0.7917945366135261  1.0000
  C   C31       1.0  0.5430724628022894  0.02778788163399387  0.2917945365454562  1.0000
  C   C32       1.0  0.043072462991743096  0.4722121184815051  0.7082054635906836  1.0000
  N   N1        1.0  0.569946195046146  0.5790547924340083  0.8711004790595157  1.0000
  N   N2        1.0  0.06994619417690265  0.9209452079124887  0.12889952107662403  1.0000
  N   N3        1.0  0.43005380563364365  0.07905479231850934  0.6288995211446939  1.0000
  N   N4        1.0  0.9300538054441899  0.4209452077969897  0.3711004789914458  1.0000
  N   N5        1.0  0.43005380563364365  0.4209452077969897  0.12889952107662403  1.0000
  N   N6        1.0  0.9300538054441899  0.07905479231850934  0.8711004790595157  1.0000
  N   N7        1.0  0.569946195046146  0.9209452079124887  0.3711004789914458  1.0000
  N   N8        1.0  0.06994619417690265  0.5790547924340083  0.6288995211446939  1.0000
  O   O1        1.0  0.8639751117901786  0.1684904985180346  0.611912541335201  1.0000
  O   O2        1.0  0.3639751119796323  0.33150950159746445  0.38808745812523204  1.0000
  O   O3        1.0  0.136024887830914  0.6684904986335336  0.8880874581933019  1.0000
  O   O4        1.0  0.6360248876414603  0.8315095017129635  0.1119125412671311  1.0000
  O   O5        1.0  0.136024887830914  0.8315095017129635  0.38808745812523204  1.0000
  O   O6        1.0  0.6360248876414603  0.6684904986335336  0.611912541335201  1.0000
  O   O7        1.0  0.8639751117901786  0.33150950159746445  0.1119125412671311  1.0000
  O   O8        1.0  0.3639751119796323  0.1684904985180346  0.8880874581933019  1.0000
  O   O9        1.0  0.6908716543714334  0.05180693580460558  0.5287652588811745  1.0000
  O   O10       1.0  0.1908716545608871  0.4481930630754942  0.47123474125496523  1.0000
  O   O11       1.0  0.3091283452496592  0.5518069359201045  0.9712347413230351  1.0000
  O   O12       1.0  0.8091283450602056  0.9481930631909932  0.028765258813104624  1.0000
  O   O13       1.0  0.3091283452496592  0.9481930631909932  0.47123474125496523  1.0000
  O   O14       1.0  0.8091283450602056  0.5518069359201045  0.5287652588811745  1.0000
  O   O15       1.0  0.6908716543714334  0.4481930630754942  0.028765258813104624  1.0000
  O   O16       1.0  0.1908716545608871  0.05180693580460558  0.9712347413230351  1.0000
  O   O17       1.0  0.6608329443347017  0.2940485601867833  0.6910674788701336  1.0000
  O   O18       1.0  0.16083294452415542  0.20595143992871573  0.3089325212660061  1.0000
  O   O19       1.0  0.3391670563450878  0.7940485603022823  0.808932521334076  1.0000
  O   O20       1.0  0.8391670561556341  0.7059514388088156  0.19106747880206373  1.0000
  O   O21       1.0  0.3391670563450878  0.7059514388088156  0.3089325212660061  1.0000
  O   O22       1.0  0.8391670561556341  0.7940485603022823  0.6910674788701336  1.0000
  O   O23       1.0  0.6608329443347017  0.20595143992871573  0.19106747880206373  1.0000
  O   O24       1.0  0.16083294452415542  0.2940485601867833  0.808932521334076  1.0000
  O   O25       1.0  0.7678775396112341  0.3480468619552466  0.8254036389282078  1.0000
  O   O26       1.0  0.2678775398006878  0.15195313816025244  0.174596361207932  1.0000
  O   O27       1.0  0.23212246000985853  0.8480468608353464  0.6745963612760019  1.0000
  O   O28       1.0  0.7321224598204048  0.6519531382757514  0.32540363886013784  1.0000
  O   O29       1.0  0.23212246000985853  0.6519531382757514  0.174596361207932  1.0000
  O   O30       1.0  0.7321224598204048  0.8480468608353464  0.8254036389282078  1.0000
  O   O31       1.0  0.7678775396112341  0.15195313816025244  0.32540363886013784  1.0000
  O   O32       1.0  0.2678775398006878  0.3480468619552466  0.6745963612760019  1.0000
