data_image0
_chemical_formula_structural       H28C38N2O4S
_chemical_formula_sum              "H28 C38 N2 O4 S1"
_cell_length_a       8.050834283983438
_cell_length_b       9.208210634693984
_cell_length_c       11.003950733950102
_cell_angle_alpha    86.94640283588673
_cell_angle_beta     71.32866563965548
_cell_angle_gamma    70.40738892048782

_space_group_name_H-M_alt    "P 1"
_space_group_IT_number       1

loop_
  _space_group_symop_operation_xyz
  'x, y, z'

loop_
  _atom_site_type_symbol
  _atom_site_label
  _atom_site_symmetry_multiplicity
  _atom_site_fract_x
  _atom_site_fract_y
  _atom_site_fract_z
  _atom_site_occupancy
  H   H1        1.0  0.8876617972356159  0.2636947662572702  0.9579748897981428  1.0000
  H   H2        1.0  0.19185664478797226  0.10670365366050578  0.9275109464114928  1.0000
  H   H3        1.0  0.4953331532157715  0.056538975819805305  0.9587818317247746  1.0000
  H   H4        1.0  0.5665964494494808  0.2700631152145815  0.03882765978994143  1.0000
  H   H5        1.0  0.32935135953442235  0.5347541883739925  0.08521903879124423  1.0000
  H   H6        1.0  0.025239912638497397  0.5848193616787879  0.053421306218202506  1.0000
  H   H7        1.0  0.805393581311225  0.22248153993673989  0.15368949964576717  1.0000
  H   H8        1.0  0.6883758550181732  0.18848937557135073  0.3839353710208767  1.0000
  H   H9        1.0  0.5020033747261591  0.41801259031453114  0.5401095437157114  1.0000
  H   H10       1.0  0.43961635149341577  0.681012617581019  0.4601318349911317  1.0000
  H   H11       1.0  0.5580332635209965  0.7175469119106606  0.2263341017287158  1.0000
  H   H12       1.0  0.8193268181646476  0.9968731135432813  0.7294543476713338  1.0000
  H   H13       1.0  0.5799794499588635  0.18604848302330482  0.6486619408921855  1.0000
  H   H14       1.0  0.3339431645166925  0.1095046362260284  0.6100454080753714  1.0000
  H   H15       1.0  0.30966309099893824  0.8484401002586179  0.6624370067459061  1.0000
  H   H16       1.0  0.9618734705415346  0.5260782219240272  0.5621035936515684  1.0000
  H   H17       1.0  0.08268075426432747  0.49388135922528736  0.32626434393442855  1.0000
  H   H18       1.0  0.18213315799782165  0.23643746199239918  0.21617952156233675  1.0000
  H   H19       1.0  0.1672151123884789  0.007497023086589476  0.34363475684432665  1.0000
  H   H20       1.0  0.048798362588385116  0.03738986524497406  0.582433540635466  1.0000
  H   H21       1.0  0.8492510794176186  0.7356300475627191  0.43059443898180133  1.0000
  H   H22       1.0  0.8501278791372268  0.9212510288413528  0.4599320189505546  1.0000
  H   H23       1.0  0.06502118948321008  0.7676297432852274  0.40213624387358166  1.0000
  H   H24       1.0  0.6300166029715172  0.926228550611864  0.3043757203499714  1.0000
  H   H25       1.0  0.6359948611033671  0.9746315397125925  0.08027306805145847  1.0000
  H   H26       1.0  0.9385168426927889  0.9344540694664135  0.9051926632576414  1.0000
  H   H27       1.0  0.2348708170717329  0.8400760443028753  0.9587204091551129  1.0000
  H   H28       1.0  0.2279565640111005  0.791450429780485  0.18179531068594001  1.0000
  C   C1        1.0  0.020807923338161984  0.6528594630865291  0.72784497189817  1.0000
  C   C2        1.0  0.09296151220450417  0.48149694788880537  0.7505639143106747  1.0000
  C   C3        1.0  0.926057486656723  0.4259999198913513  0.8139676340375396  1.0000
  C   C4        1.0  0.7568515799925151  0.5742196528883396  0.8310610520012951  1.0000
  C   C5        1.0  0.6632848319990856  0.611635809377854  0.9776068856214388  1.0000
  C   C6        1.0  0.9139658824175122  0.3737759547406046  0.9541438457797796  1.0000
  C   C7        1.0  0.08929741808432694  0.3484716338274569  0.9871523493637446  1.0000
  C   C8        1.0  0.22222382868772214  0.20046145568104046  0.9620785737252445  1.0000
  C   C9        1.0  0.39379677636501703  0.17259406227755586  0.9796632392456556  1.0000
  C   C10       1.0  0.4333096233416019  0.29271578580887253  0.023368168454930806  1.0000
  C   C11       1.0  0.30012478649391483  0.44060688093960865  0.05011086986372307  1.0000
  C   C12       1.0  0.12815655489375494  0.4687812097889159  0.0322534523780921  1.0000
  C   C13       1.0  0.6868363502861471  0.4735654001878119  0.17392052696443197  1.0000
  C   C14       1.0  0.7252740938549852  0.32442986602665386  0.21926631403289548  1.0000
  C   C15       1.0  0.6586454008560079  0.3051076740624182  0.350467549600981  1.0000
  C   C16       1.0  0.555444787143529  0.43261397278960206  0.43767591734377714  1.0000
  C   C17       1.0  0.5197044425055591  0.5808642642599241  0.39234601542661435  1.0000
  C   C18       1.0  0.5848151680191318  0.6023478455537827  0.26145994461863886  1.0000
  C   C19       1.0  0.7008318865929996  0.8180009658296293  0.7352150845741395  1.0000
  C   C20       1.0  0.7119411883248726  0.964289149129899  0.7105756095253344  1.0000
  C   C21       1.0  0.5775146741214515  0.0691716486049789  0.6652097967682934  1.0000
  C   C22       1.0  0.43724302343948623  0.026111914966726442  0.6455432884393704  1.0000
  C   C23       1.0  0.4232008464544756  0.8795103131026677  0.6738265102696608  1.0000
  C   C24       1.0  0.5564253482356212  0.7745670377290232  0.7198030851126801  1.0000
  C   C25       1.0  0.930547023402168  0.28996138260331317  0.7317922819469722  1.0000
  C   C26       1.0  0.9983686986437471  0.2830717643496422  0.589698651229921  1.0000
  C   C27       1.0  0.009644542497084178  0.4111558742100448  0.5162579144524494  1.0000
  C   C28       1.0  0.07545674564437391  0.39410775699996564  0.382702620856103  1.0000
  C   C29       1.0  0.1314493778080578  0.2491231885417172  0.32065874708563014  1.0000
  C   C30       1.0  0.1222096295755755  0.12060560679287119  0.39251638310515446  1.0000
  C   C31       1.0  0.05495171814262869  0.13718541110490887  0.5258419980695471  1.0000
  C   C32       1.0  0.9244468055812903  0.8174279219012056  0.3945100296655162  1.0000
  C   C33       1.0  0.9286553549866545  0.8537632134636424  0.2591780056394638  1.0000
  C   C34       1.0  0.7628269124921658  0.9076333687530898  0.22842054009178764  1.0000
  C   C35       1.0  0.7660681984546188  0.9363026108646672  0.10218447430125915  1.0000
  C   C36       1.0  0.9355131207335843  0.9125275331878845  0.0040110450393265815  1.0000
  C   C37       1.0  0.10111793152799285  0.8614112591156493  0.033752021240041216  1.0000
  C   C38       1.0  0.09708478782978043  0.8330899457964049  0.16052446157895658  1.0000
  N   N1        1.0  0.8304095973372663  0.6951400788322115  0.7720866979487029  1.0000
  N   N2        1.0  0.7499984546857732  0.49234081044461075  0.039161441090149726  1.0000
  O   O1        1.0  0.5315814202669097  0.7297396027894265  0.024912992672787213  1.0000
  O   O2        1.0  0.11380843136117906  0.7333917189843094  0.6728983842175111  1.0000
  O   O3        1.0  0.2566007564372216  0.40278751892179143  0.7166105062873434  1.0000
  O   O4        1.0  0.882867440553407  0.18500556023184175  0.7895039701862788  1.0000
  S   S1        1.0  0.5736223765675666  0.5833047276713881  0.7595341777282839  1.0000
