data_image0
_chemical_formula_structural       H34C28N6O4
_chemical_formula_sum              "H34 C28 N6 O4"
_cell_length_a       5.158826171154087
_cell_length_b       7.752474808745546
_cell_length_c       16.904221301867793
_cell_angle_alpha    81.89957211180696
_cell_angle_beta     88.6960406179616
_cell_angle_gamma    73.07843915433416

_space_group_name_H-M_alt    "P 1"
_space_group_IT_number       1

loop_
  _space_group_symop_operation_xyz
  'x, y, z'

loop_
  _atom_site_type_symbol
  _atom_site_label
  _atom_site_symmetry_multiplicity
  _atom_site_fract_x
  _atom_site_fract_y
  _atom_site_fract_z
  _atom_site_occupancy
  H   H1        1.0  0.8615841862802286  0.8755405419193877  0.4579008403061056  1.0000
  H   H2        1.0  0.13841581366149844  0.1244594586324667  0.5420991596753059  1.0000
  H   H3        1.0  0.7408082564986015  0.7702432174155824  0.3148434142943663  1.0000
  H   H4        1.0  0.25919174210328255  0.22975678176928815  0.6851565857833496  1.0000
  H   H5        1.0  0.9716135424623569  0.3186611021130996  0.4049895930237756  1.0000
  H   H6        1.0  0.028386458076177276  0.6813388970769907  0.5950104070413605  1.0000
  H   H7        1.0  0.27500002902704707  0.033662851474745945  0.3643450641834493  1.0000
  H   H8        1.0  0.72499997091468  0.9663371490771085  0.6356549357979622  1.0000
  H   H9        1.0  0.12386835960936274  0.9033698674768161  0.24986438045425666  1.0000
  H   H10       1.0  0.8761316403323643  0.09663013307503837  0.7501356195271549  1.0000
  H   H11       1.0  0.6778316052725221  0.06963975677309142  0.18312038544909318  1.0000
  H   H12       1.0  0.32216839526601215  0.9303602424169988  0.8168796146160431  1.0000
  H   H13       1.0  0.402160053109388  0.6121342014674244  0.28291703475559954  1.0000
  H   H14       1.0  0.5978399468323391  0.3878657990844301  0.7170829652258119  1.0000
  H   H15       1.0  0.28063630087407626  0.48138478631838433  0.36055244608478904  1.0000
  H   H16       1.0  0.7193636990676509  0.5186152142334701  0.6394475538966224  1.0000
  H   H17       1.0  0.32523973209953155  0.3589425941826312  0.19824739560237153  1.0000
  H   H18       1.0  0.6747602684390027  0.6410574050074591  0.8017526044627646  1.0000
  H   H19       1.0  0.689597818112894  0.4604737477975947  0.09753801688227812  1.0000
  H   H20       1.0  0.3104021818288333  0.5395262527542597  0.9024619830991334  1.0000
  H   H21       1.0  0.8594766235045146  0.5908055928960898  0.035701037572877216  1.0000
  H   H22       1.0  0.14052337703401954  0.40919440629400056  0.9642989624922589  1.0000
  H   H23       1.0  0.6134813064188421  0.8666094529663196  0.10388348162915112  1.0000
  H   H24       1.0  0.38651869352288487  0.13339054758553492  0.8961165183522605  1.0000
  H   H25       1.0  0.42194480368680437  0.7347601092559823  0.1561544731219274  1.0000
  H   H26       1.0  0.5780551962549227  0.2652398912958721  0.8438455268594841  1.0000
  H   H27       1.0  0.440218690268409  0.818133177481021  0.9734250335801439  1.0000
  H   H28       1.0  0.5597813096733182  0.18186682307083357  0.026574966401267663  1.0000
  H   H29       1.0  0.24876008268731398  0.6864447820485318  0.025472385179873394  1.0000
  H   H30       1.0  0.7512399172544131  0.3135552185033227  0.9745276148015382  1.0000
  H   H31       1.0  0.18096865160180714  0.08669356285638945  0.04221347800837968  1.0000
  H   H32       1.0  0.8190313483399201  0.913306437695465  0.9577865219730318  1.0000
  H   H33       1.0  0.9891511746605257  0.9518123294514299  0.09107604957718973  1.0000
  H   H34       1.0  0.010848823344551367  0.04818767109520482  0.9089239504168016  1.0000
  C   C1        1.0  0.5571952737963671  0.5669986081536942  0.47820298043509496  1.0000
  C   C2        1.0  0.4428047261453599  0.43300139239816043  0.5217970195463165  1.0000
  C   C3        1.0  0.7599994993694617  0.7755919327979374  0.4481683536030881  1.0000
  C   C4        1.0  0.2400004986356154  0.22440806774869748  0.5518316463909031  1.0000
  C   C5        1.0  0.6989761191204689  0.7290155473131985  0.3765927947842757  1.0000
  C   C6        1.0  0.30102388141806513  0.2709844518768918  0.6234072052808605  1.0000
  C   C7        1.0  0.6631061147016185  0.3423235855274989  0.31613760674018687  1.0000
  C   C8        1.0  0.33689388524010855  0.6576764150243556  0.6838623932412247  1.0000
  C   C9        1.0  0.909891355392454  0.2590388507930418  0.3566800143121054  1.0000
  C   C10       1.0  0.09010864454927306  0.7409611497588128  0.6433199856693061  1.0000
  C   C11       1.0  0.0808525119751562  0.09991916557807946  0.3333473829643381  1.0000
  C   C12       1.0  0.9191474885633779  0.9000808336120109  0.6666526171007982  1.0000
  C   C13       1.0  0.00031235670870249525  0.028022852165713836  0.27023990676409465  1.0000
  C   C14       1.0  0.9996876438298314  0.9719771470243765  0.7297600933010415  1.0000
  C   C15       1.0  0.7511855562354284  0.11959670670050851  0.23286162181420275  1.0000
  C   C16       1.0  0.2488144443031056  0.8804032924895819  0.7671383782509335  1.0000
  C   C17       1.0  0.46360175838128675  0.5135070793003512  0.33720913218749815  1.0000
  C   C18       1.0  0.5363982421572474  0.4864929198897391  0.662790867877638  1.0000
  C   C19       1.0  0.9813752641536935  0.5426022539780336  0.15768218757103555  1.0000
  C   C20       1.0  0.01862473638484071  0.4573977452120567  0.8423178124941006  1.0000
  C   C21       1.0  0.7624205437712408  0.5812725383197651  0.09429590137319724  1.0000
  C   C22       1.0  0.23757945676729325  0.41872746087032525  0.9057040986919389  1.0000
  C   C23       1.0  0.5304090608258327  0.7523613141396189  0.1001155210885168  1.0000
  C   C24       1.0  0.4695909397127014  0.2476386850504714  0.8998844789766193  1.0000
  C   C25       1.0  0.3310351875873167  0.8011677924789162  0.029598288610191002  1.0000
  C   C26       1.0  0.6689648129512172  0.19883220671117433  0.970401711454945  1.0000
  C   C27       1.0  0.09869111827420232  0.9731003775018587  0.03556178640262061  1.0000
  C   C28       1.0  0.9013088822643317  0.026899621688231647  0.9644382136625156  1.0000
  N   N1        1.0  0.5669860347920196  0.597991827091531  0.3958790815900819  1.0000
  N   N2        1.0  0.43301396574651435  0.4020081720985594  0.6041209184750542  1.0000
  N   N3        1.0  0.6714193488153353  0.6755897772938714  0.5107860813139803  1.0000
  N   N4        1.0  0.3285806517231987  0.32441022189621904  0.4892139187511559  1.0000
  N   N5        1.0  0.5863499127433509  0.2732673208876771  0.25487172098306865  1.0000
  N   N6        1.0  0.41365008719837615  0.7267326796641774  0.7451282789983428  1.0000
  O   O1        1.0  0.17642718498930732  0.38855373896105627  0.15278603475407984  1.0000
  O   O2        1.0  0.8235728149524197  0.6114462615907982  0.8472139652273316  1.0000
  O   O3        1.0  0.9795783956556644  0.6442121659688016  0.20797478791721447  1.0000
  O   O4        1.0  0.020421604286062656  0.355787834583053  0.7920252120641971  1.0000
