data_image0
_chemical_formula_structural       H38C30N6O4
_chemical_formula_sum              "H38 C30 N6 O4"
_cell_length_a       5.177495577870904
_cell_length_b       7.722342059970863
_cell_length_c       18.143749022889907
_cell_angle_alpha    85.23456065319802
_cell_angle_beta     83.34693289971932
_cell_angle_gamma    72.74117505284094

_space_group_name_H-M_alt    "P 1"
_space_group_IT_number       1

loop_
  _space_group_symop_operation_xyz
  'x, y, z'

loop_
  _atom_site_type_symbol
  _atom_site_label
  _atom_site_symmetry_multiplicity
  _atom_site_fract_x
  _atom_site_fract_y
  _atom_site_fract_z
  _atom_site_occupancy
  H   H1        1.0  0.6210845037407038  0.13393847842958398  0.03902892187096173  1.0000
  H   H2        1.0  0.3789154966501775  0.8660615209889035  0.9609710779594424  1.0000
  H   H3        1.0  0.6849496110523156  0.26826173637644274  0.17192466385677208  1.0000
  H   H4        1.0  0.3150503887386077  0.7317382643998112  0.8280753359443604  1.0000
  H   H5        1.0  0.48963688583706183  0.7018496232182998  0.08853055194518977  1.0000
  H   H6        1.0  0.5103631139501664  0.29815037756064744  0.9114694484071222  1.0000
  H   H7        1.0  0.16916776124186092  0.9966546581338068  0.12660934704137222  1.0000
  H   H8        1.0  0.8308322385490623  0.0033453426424471656  0.8733906527597602  1.0000
  H   H9        1.0  0.2753475441535979  0.15069062190483096  0.23293504300753673  1.0000
  H   H10       1.0  0.7246524556373252  0.849309378871423  0.7670649567935958  1.0000
  H   H11       1.0  0.6959179062499151  0.9976592717176156  0.29438985892530223  1.0000
  H   H12       1.0  0.30408209414096643  0.0023407277008718093  0.7056101409051017  1.0000
  H   H13       1.0  0.16337290002533256  0.5469275010341216  0.12948469170002455  1.0000
  H   H14       1.0  0.8366271003655488  0.4530724983843659  0.8705153081303795  1.0000
  H   H15       1.0  0.012381074066380546  0.4316567252053057  0.20165375225151255  1.0000
  H   H16       1.0  0.9876189257208476  0.5683432755736417  0.7983462481007993  1.0000
  H   H17       1.0  0.0577580585837302  0.7037371867088299  0.27949733661419834  1.0000
  H   H18       1.0  0.9422419392659394  0.29626281405994526  0.7205026632506684  1.0000
  H   H19       1.0  0.45493175596278473  0.5096829320999259  0.4312259636879779  1.0000
  H   H20       1.0  0.5450682444280966  0.4903170673185615  0.5687740361424262  1.0000
  H   H21       1.0  0.6518435444434835  0.6241678230516147  0.3734345400653731  1.0000
  H   H22       1.0  0.3481564553474398  0.3758321777246392  0.6265654597357595  1.0000
  H   H23       1.0  0.9419414617482387  0.33212072957060185  0.3211225285986799  1.0000
  H   H24       1.0  0.05805853803898968  0.6678792712083456  0.678877471753632  1.0000
  H   H25       1.0  0.7300068068363391  0.213786772452617  0.37116114426071267  1.0000
  H   H26       1.0  0.26999319161328866  0.7862132269583917  0.6288388556334257  1.0000
  H   H27       1.0  0.06303842634531025  0.4140705794113427  0.441478320795755  1.0000
  H   H28       1.0  0.9369615734456129  0.5859294213649112  0.5585216790053775  1.0000
  H   H29       1.0  0.8530944132747798  0.29438272725142395  0.4913045250653672  1.0000
  H   H30       1.0  0.14690558711610197  0.7056172721670634  0.5086954747650367  1.0000
  H   H31       1.0  0.34866847941868995  0.12785428480467267  0.3833930006921372  1.0000
  H   H32       1.0  0.6513315209721915  0.8721457146138147  0.6166069991382669  1.0000
  H   H33       1.0  0.13659593894135771  0.006993999168877301  0.4309372454337901  1.0000
  H   H34       1.0  0.8634040614495236  0.9930060002496103  0.5690627543966139  1.0000
  H   H35       1.0  0.4684526920466137  0.20268338963119678  0.5046787138452389  1.0000
  H   H36       1.0  0.5315473083442678  0.7973166097872907  0.4953212859851651  1.0000
  H   H37       1.0  0.25015117657892505  0.08741527737126178  0.5533110603094156  1.0000
  H   H38       1.0  0.7498488232119983  0.9125847234049921  0.446688939491717  1.0000
  C   C1        1.0  0.9342667923017647  0.4373927594353596  0.02019213109413674  1.0000
  C   C2        1.0  0.06573320808542193  0.5626072399858213  0.9798078692874467  1.0000
  C   C3        1.0  0.7190479469581548  0.23545797051204653  0.04806709961507173  1.0000
  C   C4        1.0  0.28095205343272667  0.7645420289064409  0.9519329002153323  1.0000
  C   C5        1.0  0.7519763400041142  0.29650739940751797  0.11462391579231375  1.0000
  C   C6        1.0  0.24802366038676715  0.7034926000109695  0.8853760840380902  1.0000
  C   C7        1.0  0.7636596003812772  0.6962204549565107  0.1708391885802963  1.0000
  C   C8        1.0  0.23634040000960418  0.30377954446197675  0.8291608112501078  1.0000
  C   C9        1.0  0.5323288210285613  0.7715399936748706  0.1333713044722475  1.0000
  C   C10       1.0  0.46767117936232017  0.22846000574361677  0.8666286953581565  1.0000
  C   C11       1.0  0.3516511896248793  0.9361598874950641  0.15523285456369726  1.0000
  C   C12       1.0  0.648348810166044  0.06384011328119006  0.8447671452374353  1.0000
  C   C13       1.0  0.4071511390466017  0.021276755819525327  0.21384129146530703  1.0000
  C   C14       1.0  0.5928488607443215  0.9787232449567286  0.7861587083358255  1.0000
  C   C15       1.0  0.6422064627485217  0.9370079767500562  0.2483331944708974  1.0000
  C   C16       1.0  0.3577935376423597  0.06299202266843129  0.7516668053595066  1.0000
  C   C17       1.0  0.972107468327809  0.5196927860411084  0.1512089868482253  1.0000
  C   C18       1.0  0.02789253146311442  0.48030721473514554  0.8487910129529072  1.0000
  C   C19       1.0  0.38602556788429043  0.5279115868278679  0.31790857555932744  1.0000
  C   C20       1.0  0.613974431902938  0.4720884139510794  0.6820914247929845  1.0000
  C   C21       1.0  0.5780226679128374  0.5037280928830841  0.3771856121977137  1.0000
  C   C22       1.0  0.4219773324780439  0.4962719065354034  0.6228143876326903  1.0000
  C   C23       1.0  0.811799641707988  0.32924620643844293  0.3734280474701024  1.0000
  C   C24       1.0  0.18820035868289348  0.6707537929800446  0.6265719523603016  1.0000
  C   C25       1.0  0.9828970825593577  0.2978644456126003  0.4388501374059629  1.0000
  C   C26       1.0  0.017102917831523613  0.7021355538058872  0.5611498624244411  1.0000
  C   C27       1.0  0.21639138779486025  0.12283744907945328  0.43514521624843056  1.0000
  C   C28       1.0  0.7836086125960211  0.8771625503390341  0.5648547835819734  1.0000
  C   C29       1.0  0.38429462011406806  0.08833833436469327  0.5014185604361546  1.0000
  C   C30       1.0  0.6157053802768133  0.9116616650537941  0.49858143939424937  1.0000
  N   N1        1.0  0.8921197362712661  0.42309433081091674  0.09671182131475624  1.0000
  N   N2        1.0  0.10788026411961534  0.5769056686075708  0.9032881785156477  1.0000
  N   N3        1.0  0.8325536777552436  0.3223495206671938  0.9898584136828862  1.0000
  N   N4        1.0  0.16744632263194306  0.6776504787539871  0.010141586698697186  1.0000
  N   N5        1.0  0.8164366799275815  0.7780357002165349  0.22766151212939165  1.0000
  N   N6        1.0  0.18356332045960502  0.221964299204646  0.7723384882521918  1.0000
  O   O1        1.0  0.18923407809178328  0.6843028911884822  0.321494810598162  1.0000
  O   O2        1.0  0.8107659216991401  0.31569710958777164  0.6785051892029705  1.0000
  O   O3        1.0  0.4091040431501413  0.41381236847387687  0.2718514600681986  1.0000
  O   O4        1.0  0.5908959572407401  0.5861876309446106  0.7281485397622054  1.0000
