data_image0
_chemical_formula_structural       H30C26N6O4
_chemical_formula_sum              "H30 C26 N6 O4"
_cell_length_a       4.986292887749567
_cell_length_b       7.929167158645775
_cell_length_c       16.181479893172042
_cell_angle_alpha    99.88656396805895
_cell_angle_beta     93.75737272210372
_cell_angle_gamma    107.85030541312837

_space_group_name_H-M_alt    "P 1"
_space_group_IT_number       1

loop_
  _space_group_symop_operation_xyz
  'x, y, z'

loop_
  _atom_site_type_symbol
  _atom_site_label
  _atom_site_symmetry_multiplicity
  _atom_site_fract_x
  _atom_site_fract_y
  _atom_site_fract_z
  _atom_site_occupancy
  H   H1        1.0  0.649625401351391  0.8740448117833988  0.04451436463207717  1.0000
  H   H2        1.0  0.35037459934231363  0.1259551874054569  0.9554856349876482  1.0000
  H   H3        1.0  0.8363185789476997  0.7975942962063671  0.19608417256987076  1.0000
  H   H4        1.0  0.16368142042305786  0.20240570433706406  0.8039158277541072  1.0000
  H   H5        1.0  0.5600959936349581  0.3313723375546683  0.10155466731576539  1.0000
  H   H6        1.0  0.43990400705457705  0.6686276616337123  0.898445332921825  1.0000
  H   H7        1.0  0.2753877036945203  0.048801031955613236  0.14242992301247007  1.0000
  H   H8        1.0  0.7246122956804067  0.951198968588293  0.8575700766936428  1.0000
  H   H9        1.0  0.4890987440113332  0.9393403246475407  0.26119442611631505  1.0000
  H   H10       1.0  0.5109012553594243  0.060659675895890525  0.738805574207663  1.0000
  H   H11       1.0  0.9760438979334228  0.12203133284945444  0.33137104174192755  1.0000
  H   H12       1.0  0.023956102760281903  0.8779686663394013  0.668628957877798  1.0000
  H   H13       1.0  0.18919252154280172  0.6488092078711389  0.23037387424439257  1.0000
  H   H14       1.0  0.8108074798408005  0.3511907926705285  0.7696261255033015  1.0000
  H   H15       1.0  0.2991357167836875  0.5172830238862172  0.1490616966096608  1.0000
  H   H16       1.0  0.7008642825912395  0.48271697665768903  0.850938303096452  1.0000
  H   H17       1.0  0.3204368516616069  0.4118982261087714  0.3174382782639252  1.0000
  H   H18       1.0  0.6795631477091507  0.5881017744346599  0.6825617220600527  1.0000
  H   H19       1.0  0.026834578743198764  0.55563471724459  0.42410753154679487  1.0000
  H   H20       1.0  0.9731654219463365  0.44436528194379077  0.5758924686907956  1.0000
  H   H21       1.0  0.8488631799004418  0.6661511698746116  0.4928211165837253  1.0000
  H   H22       1.0  0.15113682148316046  0.3338488306670558  0.5071788831639689  1.0000
  H   H23       1.0  0.043297069200984584  0.948202857658743  0.4291908307685122  1.0000
  H   H24       1.0  0.9567029301697731  0.05179714288468819  0.5708091695554658  1.0000
  H   H25       1.0  0.23898877753962786  0.8358332105938328  0.36824449376155965  1.0000
  H   H26       1.0  0.7610112238439743  0.16416678994783454  0.6317555059861344  1.0000
  H   H27       1.0  0.30348507850488415  0.9203452759429993  0.5624160076076072  1.0000
  H   H28       1.0  0.6965149208658735  0.07965472460043205  0.4375839927163708  1.0000
  H   H29       1.0  0.4971937536196005  0.8063588996405021  0.5019713412066958  1.0000
  H   H30       1.0  0.5028062457553265  0.1936411009034041  0.498028658499417  1.0000
  C   C1        1.0  0.9515160165867005  0.5692921662943836  0.02313142977123859  1.0000
  C   C2        1.0  0.04848398410283458  0.43070783289399706  0.9768685704663519  1.0000
  C   C3        1.0  0.7581929123553524  0.7786066740656387  0.0548511748863865  1.0000
  C   C4        1.0  0.24180708701540532  0.2213933264777928  0.9451488254375914  1.0000
  C   C5        1.0  0.8519911220029037  0.7459132427420998  0.1307089213509958  1.0000
  C   C6        1.0  0.1480088793806986  0.2540867577995676  0.8692910783966984  1.0000
  C   C7        1.0  0.9202391868391869  0.37383368379265175  0.19423426336144306  1.0000
  C   C8        1.0  0.07976081385034829  0.6261663153957289  0.8057657368761474  1.0000
  C   C9        1.0  0.6487257321845116  0.28071399995685786  0.15165851953706713  1.0000
  C   C10       1.0  0.3512742691990906  0.7192860005848095  0.8483414802106269  1.0000
  C   C11       1.0  0.4883467549091593  0.12294023023629462  0.17522147702162966  1.0000
  C   C12       1.0  0.5116532444615983  0.8770597703071368  0.8247785233023484  1.0000
  C   C13       1.0  0.6033928888814757  0.06241913805113068  0.24064760418374134  1.0000
  C   C14       1.0  0.3966071125021265  0.9375808624905366  0.7593523955639527  1.0000
  C   C15       1.0  0.875384532851096  0.16368634868020926  0.2800864478038567  1.0000
  C   C16       1.0  0.12461546783843919  0.8363136505081714  0.7199135524337337  1.0000
  C   C17       1.0  0.11212299910453483  0.5438991826179946  0.17270330131068623  1.0000
  C   C18       1.0  0.8878769995804948  0.45610081657309987  0.8272966982674579  1.0000
  C   C19       1.0  0.6795818356944935  0.6096468821423348  0.36385544033868256  1.0000
  C   C20       1.0  0.3204181649992112  0.3903531170465209  0.6361445592810429  1.0000
  C   C21       1.0  0.931840724781245  0.6648110427536899  0.4312611931649088  1.0000
  C   C22       1.0  0.06815927459368203  0.33518895779021646  0.5687388065412041  1.0000
  C   C23       1.0  0.15061965957632378  0.8458434965069567  0.42878107239944957  1.0000
  C   C24       1.0  0.8493803397986033  0.15415650403694967  0.5712189273066632  1.0000
  C   C25       1.0  0.3911093216800343  0.909379691375074  0.5016896891121339  1.0000
  C   C26       1.0  0.6088906776948927  0.09062030916883222  0.49831031059397907  1.0000
  N   N1        1.0  0.9780097723618754  0.6142582570910791  0.11035604745249539  1.0000
  N   N2        1.0  0.021990227008882157  0.38574174345235207  0.8896439528714826  1.0000
  N   N3        1.0  0.8207073458222574  0.6696406309697064  0.9886173756279113  1.0000
  N   N4        1.0  0.17929265355266966  0.33035936957419987  0.011382624078201556  1.0000
  N   N5        1.0  0.030460053654565424  0.3161441553948059  0.2578499578738976  1.0000
  N   N6        1.0  0.9695399457161923  0.6838558451486255  0.7421500424500804  1.0000
  O   O1        1.0  0.4924368601156679  0.4500039190415046  0.36573890009965176  1.0000
  O   O2        1.0  0.5075631392592592  0.5499960815024016  0.6342610996064612  1.0000
  O   O3        1.0  0.6506140122712387  0.7040155134581046  0.31273465763996927  1.0000
  O   O4        1.0  0.34938598842246593  0.2959844857307511  0.6872653419797562  1.0000
