data_image0
_chemical_formula_structural       H120C60N12Br8I8
_chemical_formula_sum              "H120 C60 N12 Br8 I8"
_cell_length_a       16.560087358500066
_cell_length_b       11.31503729351534
_cell_length_c       12.852910037590645
_cell_angle_alpha    90.0
_cell_angle_beta     108.17515210487575
_cell_angle_gamma    90.0

_space_group_name_H-M_alt    "P 1"
_space_group_IT_number       1

loop_
  _space_group_symop_operation_xyz
  'x, y, z'

loop_
  _atom_site_type_symbol
  _atom_site_label
  _atom_site_symmetry_multiplicity
  _atom_site_fract_x
  _atom_site_fract_y
  _atom_site_fract_z
  _atom_site_occupancy
  H   H1        1.0  0.6261016547505205  0.7431626049362786  0.8325584802851245  1.0000
  H   H2        1.0  0.37389834580644654  0.7431626049362786  0.1674415198396942  1.0000
  H   H3        1.0  0.12610165477374416  0.24316260464972805  0.8325584802550845  1.0000
  H   H4        1.0  0.8738983457832229  0.24316260464972805  0.16744151986973427  1.0000
  H   H5        1.0  0.37389834580644654  0.2568373956368224  0.1674415198396942  1.0000
  H   H6        1.0  0.6261016547505205  0.2568373956368224  0.8325584802851245  1.0000
  H   H7        1.0  0.8738983457832229  0.7568373950395932  0.16744151986973427  1.0000
  H   H8        1.0  0.12610165477374416  0.7568373950395932  0.8325584802550845  1.0000
  H   H9        1.0  0.6286894077847875  0.5875577134695006  0.8363950588563778  1.0000
  H   H10       1.0  0.37131059216761586  0.5875577134695006  0.16360494126552516  1.0000
  H   H11       1.0  0.12868940780801114  0.08755771318295008  0.8363950588263377  1.0000
  H   H12       1.0  0.8713105921443923  0.08755771318295008  0.16360494129556527  1.0000
  H   H13       1.0  0.37131059216761586  0.41244228621982076  0.16360494126552516  1.0000
  H   H14       1.0  0.6286894077847875  0.41244228621982076  0.8363950588563778  1.0000
  H   H15       1.0  0.8713105921443923  0.9124422865063713  0.16360494129556527  1.0000
  H   H16       1.0  0.12868940780801114  0.9124422865063713  0.8363950588263377  1.0000
  H   H17       1.0  0.492862729642175  0.8432452092286216  0.8238722601157265  1.0000
  H   H18       1.0  0.5071372709147921  0.8432452092286216  0.17612774000909218  1.0000
  H   H19       1.0  0.9928627296189514  0.34324520982585077  0.8238722601457666  1.0000
  H   H20       1.0  0.007137270938015647  0.34324520982585077  0.17612773997905212  1.0000
  H   H21       1.0  0.5071372709147921  0.1567547904606997  0.17612774000909218  1.0000
  H   H22       1.0  0.492862729642175  0.1567547904606997  0.8238722601157265  1.0000
  H   H23       1.0  0.007137270938015647  0.6567547907472502  0.17612773997905212  1.0000
  H   H24       1.0  0.9928627296189514  0.6567547907472502  0.8238722601457666  1.0000
  H   H25       1.0  0.39783123616769595  0.767523533923934  0.7577794364875253  1.0000
  H   H26       1.0  0.6021687643892711  0.767523533923934  0.24222056363729344  1.0000
  H   H27       1.0  0.8978312361444722  0.2675235336373835  0.7577794365175653  1.0000
  H   H28       1.0  0.10216876441249474  0.2675235336373835  0.24222056360725333  1.0000
  H   H29       1.0  0.6021687643892711  0.23247646664916702  0.24222056363729344  1.0000
  H   H30       1.0  0.39783123616769595  0.23247646664916702  0.7577794364875253  1.0000
  H   H31       1.0  0.10216876441249474  0.7324764669357176  0.24222056360725333  1.0000
  H   H32       1.0  0.8978312361444722  0.7324764669357176  0.7577794365175653  1.0000
  H   H33       1.0  0.4457190438651363  0.7454416871285026  0.5879727044272269  1.0000
  H   H34       1.0  0.5542809560872671  0.7454416871285026  0.4120272956946759  1.0000
  H   H35       1.0  0.9457190444464764  0.24544168684195197  0.5879727044601829  1.0000
  H   H36       1.0  0.05428095611049071  0.24544168684195197  0.41202729566463586  1.0000
  H   H37       1.0  0.5542809560872671  0.25455831256081884  0.4120272956946759  1.0000
  H   H38       1.0  0.4457190438651363  0.25455831256081884  0.5879727044272269  1.0000
  H   H39       1.0  0.05428095611049071  0.7545583128473694  0.41202729566463586  1.0000
  H   H40       1.0  0.9457190444464764  0.7545583128473694  0.5879727044601829  1.0000
  H   H41       1.0  0.5397413346460327  0.8250101990693314  0.6563826396701982  1.0000
  H   H42       1.0  0.4602586653063708  0.8250101990693314  0.3436173604517047  1.0000
  H   H43       1.0  0.03974133466925629  0.32501019878278087  0.6563826396401582  1.0000
  H   H44       1.0  0.9602586652831472  0.32501019878278087  0.3436173604817448  1.0000
  H   H45       1.0  0.4602586653063708  0.1749898015037696  0.3436173604517047  1.0000
  H   H46       1.0  0.5397413346460327  0.1749898015037696  0.6563826396701982  1.0000
  H   H47       1.0  0.9602586652831472  0.6749898009065405  0.3436173604817448  1.0000
  H   H48       1.0  0.03974133466925629  0.6749898009065405  0.6563826396401582  1.0000
  H   H49       1.0  0.43918935788563934  0.8964121979353022  0.6250972154774478  1.0000
  H   H50       1.0  0.5608106420667641  0.8964121979353022  0.37490278464445514  1.0000
  H   H51       1.0  0.9391893578624158  0.3964121976487517  0.6250972155074879  1.0000
  H   H52       1.0  0.06081064208998769  0.3964121976487517  0.37490278461441506  1.0000
  H   H53       1.0  0.5608106420667641  0.1035878017540191  0.37490278464445514  1.0000
  H   H54       1.0  0.43918935788563934  0.1035878017540191  0.6250972154774478  1.0000
  H   H55       1.0  0.06081064208998769  0.6035878020405696  0.37490278461441506  1.0000
  H   H56       1.0  0.9391893578624158  0.6035878020405696  0.6250972155074879  1.0000
  H   H57       1.0  0.2245520948191319  0.4032710084495325  0.5343976339611077  1.0000
  H   H58       1.0  0.7754479051332714  0.4032710084495325  0.46560236616079514  1.0000
  H   H59       1.0  0.7245520947959083  0.9032710087360829  0.5343976339911479  1.0000
  H   H60       1.0  0.2754479051564951  0.9032710087360829  0.465602366130755  1.0000
  H   H61       1.0  0.7754479051332714  0.5967289912397888  0.46560236616079514  1.0000
  H   H62       1.0  0.2245520948191319  0.5967289912397888  0.5343976339611077  1.0000
  H   H63       1.0  0.2754479051564951  0.09672899095323836  0.465602366130755  1.0000
  H   H64       1.0  0.7245520947959083  0.09672899095323836  0.5343976339911479  1.0000
  H   H65       1.0  0.3175228120562142  0.3256350098034261  0.6039849165852457  1.0000
  H   H66       1.0  0.6824771878961892  0.3256350098034261  0.3960150835366572  1.0000
  H   H67       1.0  0.8175228120329906  0.8256350100899765  0.6039849166152857  1.0000
  H   H68       1.0  0.1824771879194128  0.8256350100899765  0.3960150835066171  1.0000
  H   H69       1.0  0.6824771878961892  0.6743649898858952  0.3960150835366572  1.0000
  H   H70       1.0  0.3175228120562142  0.6743649898858952  0.6039849165852457  1.0000
  H   H71       1.0  0.1824771879194128  0.1743649904831244  0.3960150835066171  1.0000
  H   H72       1.0  0.8175228120329906  0.1743649904831244  0.6039849166152857  1.0000
  H   H73       1.0  0.5953126345365001  0.7530927781284071  0.009817329069867283  1.0000
  H   H74       1.0  0.40468736602046707  0.7530927781284071  0.9901826710549514  1.0000
  H   H75       1.0  0.09531263455972361  0.2530927778418566  0.009817329039827195  1.0000
  H   H76       1.0  0.9046873659972434  0.2530927778418566  0.9901826710849915  1.0000
  H   H77       1.0  0.40468736602046707  0.24690722156091427  0.9901826710549514  1.0000
  H   H78       1.0  0.5953126345365001  0.24690722156091427  0.009817329069867283  1.0000
  H   H79       1.0  0.9046873659972434  0.7469072218474648  0.9901826710849915  1.0000
  H   H80       1.0  0.09531263455972361  0.7469072218474648  0.009817329039827195  1.0000
  H   H81       1.0  0.6874536975487128  0.6651790864457389  0.024693204121472936  1.0000
  H   H82       1.0  0.3125463022075926  0.6651790864457389  0.9753067951815446  1.0000
  H   H83       1.0  0.18745369757193636  0.16517908704296805  0.02469320409143285  1.0000
  H   H84       1.0  0.8125463021843691  0.16517908704296805  0.9753067952115848  1.0000
  H   H85       1.0  0.3125463022075926  0.33482091324358243  0.9753067951815446  1.0000
  H   H86       1.0  0.6874536975487128  0.33482091324358243  0.024693204121472936  1.0000
  H   H87       1.0  0.8125463021843691  0.8348209135301331  0.9753067952115848  1.0000
  H   H88       1.0  0.18745369757193636  0.8348209135301331  0.02469320409143285  1.0000
  H   H89       1.0  0.5888620269551488  0.595842003442961  0.014128757012165082  1.0000
  H   H90       1.0  0.41113797299725463  0.595842003442961  0.9858712431097377  1.0000
  H   H91       1.0  0.08886202697837238  0.0958420040401902  0.014128756982124988  1.0000
  H   H92       1.0  0.911137972974031  0.0958420040401902  0.9858712431397779  1.0000
  H   H93       1.0  0.41113797299725463  0.4041579962463603  0.9858712431097377  1.0000
  H   H94       1.0  0.5888620269551488  0.4041579962463603  0.014128757012165082  1.0000
  H   H95       1.0  0.911137972974031  0.9041579965329108  0.9858712431397779  1.0000
  H   H96       1.0  0.08886202697837238  0.9041579965329108  0.014128756982124988  1.0000
  H   H97       1.0  0.19756109723611814  0.24805476881711658  0.660643471427012  1.0000
  H   H98       1.0  0.8024389027162854  0.24805476881711658  0.339356528694891  1.0000
  H   H99       1.0  0.6975610972128945  0.7480547682198874  0.660643471457052  1.0000
  H   H100      1.0  0.3024389027395089  0.7480547682198874  0.3393565286648509  1.0000
  H   H101      1.0  0.8024389027162854  0.7519452317559845  0.339356528694891  1.0000
  H   H102      1.0  0.19756109723611814  0.7519452317559845  0.660643471427012  1.0000
  H   H103      1.0  0.3024389027395089  0.25194523146943393  0.3393565286648509  1.0000
  H   H104      1.0  0.6975610972128945  0.25194523146943393  0.660643471457052  1.0000
  H   H105      1.0  0.17448599475480667  0.3925471091947293  0.7000984345533832  1.0000
  H   H106      1.0  0.8255140051975967  0.3925471091947293  0.2999015655685198  1.0000
  H   H107      1.0  0.6744859947315831  0.8925471094812798  0.7000984345834231  1.0000
  H   H108      1.0  0.32551400522082036  0.8925471094812798  0.29990156553847974  1.0000
  H   H109      1.0  0.8255140051975967  0.6074528904945921  0.2999015655685198  1.0000
  H   H110      1.0  0.17448599475480667  0.6074528904945921  0.7000984345533832  1.0000
  H   H111      1.0  0.32551400522082036  0.1074528902080416  0.29990156553847974  1.0000
  H   H112      1.0  0.6744859947315831  0.1074528902080416  0.7000984345834231  1.0000
  H   H113      1.0  0.26975227081392683  0.3203299649818415  0.774826117579386  1.0000
  H   H114      1.0  0.7302477291384766  0.3203299649818415  0.22517388254251686  1.0000
  H   H115      1.0  0.7697522707907033  0.8203299652683921  0.7748261176094262  1.0000
  H   H116      1.0  0.23024772916170017  0.8203299652683921  0.22517388251247678  1.0000
  H   H117      1.0  0.7302477291384766  0.6796700347074799  0.22517388254251686  1.0000
  H   H118      1.0  0.26975227081392683  0.6796700347074799  0.774826117579386  1.0000
  H   H119      1.0  0.23024772916170017  0.17967003530470899  0.22517388251247678  1.0000
  H   H120      1.0  0.7697522707907033  0.17967003530470899  0.7748261176094262  1.0000
  C   C1        1.0  0.46702957914399423  0.561737108338359  0.7727305762340632  1.0000
  C   C2        1.0  0.5329704208084092  0.561737108338359  0.22726942388783977  1.0000
  C   C3        1.0  0.9670295791207707  0.06173710805180855  0.7727305762641032  1.0000
  C   C4        1.0  0.03297042083163277  0.06173710805180855  0.2272694238577997  1.0000
  C   C5        1.0  0.5329704208084092  0.43826289135096225  0.22726942388783977  1.0000
  C   C6        1.0  0.46702957914399423  0.43826289135096225  0.7727305762340632  1.0000
  C   C7        1.0  0.03297042083163277  0.9382628916375129  0.2272694238577997  1.0000
  C   C8        1.0  0.9670295791207707  0.9382628916375129  0.7727305762641032  1.0000
  C   C9        1.0  0.39304330665373227  0.5000000002865506  0.7186044179483618  1.0000
  C   C10       1.0  0.6069566932986712  0.5000000002865506  0.2813955821735411  1.0000
  C   C11       1.0  0.8930433066305087  0.0  0.7186044179784019  1.0000
  C   C12       1.0  0.10695669332189477  0.0  0.281395582143501  1.0000
  C   C13       1.0  0.599238154901179  0.6652971116864304  0.8607335059573795  1.0000
  C   C14       1.0  0.4007618448551263  0.6652971116864304  0.13926649334563804  1.0000
  C   C15       1.0  0.09923815492440265  0.1652971122836595  0.8607335059273394  1.0000
  C   C16       1.0  0.9007618448319027  0.1652971122836595  0.13926649337567812  1.0000
  C   C17       1.0  0.4007618448551263  0.334702888002891  0.13926649334563804  1.0000
  C   C18       1.0  0.599238154901179  0.334702888002891  0.8607335059573795  1.0000
  C   C19       1.0  0.9007618448319027  0.8347028882894414  0.13926649337567812  1.0000
  C   C20       1.0  0.09923815492440265  0.8347028882894414  0.8607335059273394  1.0000
  C   C21       1.0  0.4647266792113398  0.7757896799006339  0.7616891043219033  1.0000
  C   C22       1.0  0.5352733207410636  0.7757896799006339  0.23831089579999964  1.0000
  C   C23       1.0  0.9647266791881163  0.2757896796140833  0.7616891043519433  1.0000
  C   C24       1.0  0.03527332076428723  0.2757896796140833  0.23831089576995956  1.0000
  C   C25       1.0  0.5352733207410636  0.22421032067246718  0.23831089579999964  1.0000
  C   C26       1.0  0.4647266792113398  0.22421032067246718  0.7616891043219033  1.0000
  C   C27       1.0  0.03527332076428723  0.7242103200752381  0.23831089576995956  1.0000
  C   C28       1.0  0.9647266791881163  0.7242103200752381  0.7616891043519433  1.0000
  C   C29       1.0  0.4728186703367583  0.8125887101821009  0.6511501530075053  1.0000
  C   C30       1.0  0.5271813296156451  0.8125887101821009  0.3488498471143975  1.0000
  C   C31       1.0  0.9728186703135348  0.3125887098955504  0.6511501530375455  1.0000
  C   C32       1.0  0.027181329638868726  0.3125887098955504  0.34884984708435746  1.0000
  C   C33       1.0  0.5271813296156451  0.1874112895072205  0.3488498471143975  1.0000
  C   C34       1.0  0.4728186703367583  0.1874112895072205  0.6511501530075053  1.0000
  C   C35       1.0  0.027181329638868726  0.687411289793771  0.34884984708435746  1.0000
  C   C36       1.0  0.9728186703135348  0.687411289793771  0.6511501530375455  1.0000
  C   C37       1.0  0.26987151452525  0.38721272023654246  0.6160739297487092  1.0000
  C   C38       1.0  0.7301284860317171  0.38721272023654246  0.3839260703761095  1.0000
  C   C39       1.0  0.7698715145020264  0.887212720523093  0.6160739297787494  1.0000
  C   C40       1.0  0.23012848605494066  0.887212720523093  0.38392607034606935  1.0000
  C   C41       1.0  0.7301284860317171  0.6127872794527789  0.3839260703761095  1.0000
  C   C42       1.0  0.26987151452525  0.6127872794527789  0.6160739297487092  1.0000
  C   C43       1.0  0.23012848605494066  0.11278727916622838  0.38392607034606935  1.0000
  C   C44       1.0  0.7698715145020264  0.11278727916622838  0.6160739297787494  1.0000
  C   C45       1.0  0.6184118060237829  0.6702388081695736  0.9845800957367312  1.0000
  C   C46       1.0  0.38158819392862053  0.6702388081695736  0.01541990438517161  1.0000
  C   C47       1.0  0.11841180604700645  0.17023880788302312  0.9845800957066911  1.0000
  C   C48       1.0  0.881588193905397  0.17023880788302312  0.0154199044152117  1.0000
  C   C49       1.0  0.38158819392862053  0.3297611915197477  0.01541990438517161  1.0000
  C   C50       1.0  0.6184118060237829  0.3297611915197477  0.9845800957367312  1.0000
  C   C51       1.0  0.881588193905397  0.8297611918062981  0.0154199044152117  1.0000
  C   C52       1.0  0.11841180604700645  0.8297611918062981  0.9845800957066911  1.0000
  C   C53       1.0  0.22521804082695185  0.33418535988096815  0.6922470749222583  1.0000
  C   C54       1.0  0.7747819589293535  0.33418535988096815  0.30775292438075924  1.0000
  C   C55       1.0  0.7252180408037283  0.834185359283739  0.6922470749522985  1.0000
  C   C56       1.0  0.2747819589525772  0.834185359283739  0.3077529243507192  1.0000
  C   C57       1.0  0.7747819589293535  0.6658146406921328  0.30775292438075924  1.0000
  C   C58       1.0  0.22521804082695185  0.6658146406921328  0.6922470749222583  1.0000
  C   C59       1.0  0.2747819589525772  0.16581464040558236  0.3077529243507192  1.0000
  C   C60       1.0  0.7252180408037283  0.16581464040558236  0.6922470749522985  1.0000
  N   N1        1.0  0.5078732480926486  0.6635087746730298  0.8010358119754685  1.0000
  N   N2        1.0  0.49212675185975485  0.6635087746730298  0.1989641881464344  1.0000
  N   N3        1.0  0.00787324811587211  0.16350877527025906  0.8010358119454283  1.0000
  N   N4        1.0  0.9921267516404333  0.16350877527025906  0.1989641873575892  1.0000
  N   N5        1.0  0.49212675185975485  0.3364912250162914  0.1989641881464344  1.0000
  N   N6        1.0  0.5078732480926486  0.3364912250162914  0.8010358119754685  1.0000
  N   N7        1.0  0.9921267516404333  0.8364912253028419  0.1989641873575892  1.0000
  N   N8        1.0  0.00787324811587211  0.8364912253028419  0.8010358119454283  1.0000
  N   N9        1.0  0.31271291888650543  0.5000000002865506  0.654101092875663  1.0000
  N   N10       1.0  0.6872870810658979  0.5000000002865506  0.34589890724623984  1.0000
  N   N11       1.0  0.8127129188632819  0.0  0.6541010929057031  1.0000
  N   N12       1.0  0.18728708108912154  0.0  0.34589890721619976  1.0000
  Br  Br1       1.0  0.21612519564539812  0.5000000002865506  0.3304583747847647  1.0000
  Br  Br2       1.0  0.7838748041109074  0.5000000002865506  0.6695416245182528  1.0000
  Br  Br3       1.0  0.7161251956221745  0.0  0.33045837481480483  1.0000
  Br  Br4       1.0  0.28387480413413085  0.0  0.6695416244882127  1.0000
  Br  Br5       1.0  0.1405483805009261  0.5000000002865506  0.8885637503244445  1.0000
  Br  Br6       1.0  0.8594516194514773  0.5000000002865506  0.11143624979745849  1.0000
  Br  Br7       1.0  0.6405483804777025  0.0  0.8885637503544846  1.0000
  Br  Br8       1.0  0.35945161947470095  0.0  0.1114362497674184  1.0000
  I   I1        1.0  0.17630288919631215  0.5000000002865506  0.10620529258884968  1.0000
  I   I2        1.0  0.8236971107560914  0.5000000002865506  0.8937947075330532  1.0000
  I   I3        1.0  0.6763028891730886  0.0  0.10620529261888978  1.0000
  I   I4        1.0  0.32369711077931484  0.0  0.8937947075030132  1.0000
  I   I5        1.0  0.41313420202431544  0.5000000002865506  0.44060533218904635  1.0000
  I   I6        1.0  0.586865797928088  0.5000000002865506  0.5593946679328565  1.0000
  I   I7        1.0  0.9131342020010919  0.0  0.4406053322190865  1.0000
  I   I8        1.0  0.08686579795131157  0.0  0.5593946679028164  1.0000
