data_image0
_chemical_formula_structural       H26C48N14
_chemical_formula_sum              "H26 C48 N14"
_cell_length_a       8.003468908732364
_cell_length_b       8.044765800707486
_cell_length_c       15.599130249109198
_cell_angle_alpha    83.49166976505548
_cell_angle_beta     76.2550735550615
_cell_angle_gamma    75.97404961072372

_space_group_name_H-M_alt    "P 1"
_space_group_IT_number       1

loop_
  _space_group_symop_operation_xyz
  'x, y, z'

loop_
  _atom_site_type_symbol
  _atom_site_label
  _atom_site_symmetry_multiplicity
  _atom_site_fract_x
  _atom_site_fract_y
  _atom_site_fract_z
  _atom_site_occupancy
  H   H1        1.0  0.2567224433796309  0.8960435164937811  0.10006863510021342  1.0000
  H   H2        1.0  0.7432775557177561  0.10395648365598198  0.8999313651096978  1.0000
  H   H3        1.0  0.2533227659222448  0.7177915233600224  0.24244721769568986  1.0000
  H   H4        1.0  0.7466772344618027  0.28220847678812505  0.7575527823561207  1.0000
  H   H5        1.0  0.04390337429116238  0.5174297844352849  0.28481758368723337  1.0000
  H   H6        1.0  0.9560966248062246  0.48257021571447817  0.7151824165226779  1.0000
  H   H7        1.0  0.8530534878269792  0.5012073883273075  0.18152911229842295  1.0000
  H   H8        1.0  0.1469465125552734  0.4987926118168898  0.8184708871127803  1.0000
  H   H9        1.0  0.8652991530964824  0.6946064085027045  0.04320284132997575  1.0000
  H   H10       1.0  0.13470084728756518  0.30539359164544305  0.9567971587218348  1.0000
  H   H11       1.0  0.024275284580699556  0.8534574283639327  0.9389747720399132  1.0000
  H   H12       1.0  0.9757247158033479  0.14654257178421493  0.06102522801189738  1.0000
  H   H13       1.0  0.19786801066708024  0.9322775572528542  0.962916208109971  1.0000
  H   H14       1.0  0.8021319897169673  0.06772244289529329  0.037083791941839535  1.0000
  H   H15       1.0  0.5539185912889341  0.4555788977807499  0.25588079601068014  1.0000
  H   H16       1.0  0.44608140938805924  0.5444211010839128  0.74411920408242  1.0000
  H   H17       1.0  0.4288113426220032  0.4737329848025998  0.41337063082155157  1.0000
  H   H18       1.0  0.5711886577620444  0.5262670153455477  0.586629369230259  1.0000
  H   H19       1.0  0.0857944104201021  0.13808761819942364  0.39786104553914775  1.0000
  H   H20       1.0  0.9142055886754898  0.8619123819463892  0.6021389540301563  1.0000
  H   H21       1.0  0.20728821182982476  0.1235365037639922  0.23976961734404656  1.0000
  H   H22       1.0  0.7927117885542228  0.8764634963841553  0.7602303827077639  1.0000
  H   H23       1.0  0.7330493325649543  0.1582635591783231  0.42625543801923726  1.0000
  H   H24       1.0  0.26695066781909327  0.8417364409698245  0.5737445620325733  1.0000
  H   H25       1.0  0.3847682435013011  0.825665852302593  0.41499337907446043  1.0000
  H   H26       1.0  0.6152317568827463  0.17433414784555445  0.5850066209773501  1.0000
  C   C1        1.0  0.170474520363458  0.8067177151806547  0.12239410999135913  1.0000
  C   C2        1.0  0.8295254800205895  0.1932822849674928  0.8776058900604513  1.0000
  C   C3        1.0  0.16562647209520784  0.7074646740493865  0.2007828849613642  1.0000
  C   C4        1.0  0.8343735285799908  0.2925353248113258  0.7992171144911288  1.0000
  C   C5        1.0  0.04971368517729485  0.5973395635325051  0.22361297777761793  1.0000
  C   C6        1.0  0.9502863152067528  0.40266043661564244  0.7763870222741927  1.0000
  C   C7        1.0  0.9426685446203029  0.5877241745294761  0.16657855935341123  1.0000
  C   C8        1.0  0.05733145576374454  0.41227582561867154  0.8334214406983993  1.0000
  C   C9        1.0  0.9492789806706697  0.6913648830984501  0.08925290019995684  1.0000
  C   C10       1.0  0.05072102000632369  0.3086351157662126  0.9107470998931433  1.0000
  C   C11       1.0  0.06335383876241193  0.9137622226749827  0.9883673661208168  1.0000
  C   C12       1.0  0.9366461616216355  0.08623777747316493  0.011632633930993836  1.0000
  C   C13       1.0  0.37887824707510515  0.20983925518670338  0.088165510435809  1.0000
  C   C14       1.0  0.6211217533089423  0.7901607449614442  0.9118344896160014  1.0000
  C   C15       1.0  0.4500958159192767  0.2928498696392009  0.1409799637466776  1.0000
  C   C16       1.0  0.5499041844647706  0.7071501305089467  0.8590200363051328  1.0000
  C   C17       1.0  0.5778024150863131  0.3849368817986626  0.09645119886160838  1.0000
  C   C18       1.0  0.4221975840110738  0.6150631183511004  0.9035488013483028  1.0000
  C   C19       1.0  0.3888929411439093  0.2905951348085985  0.23423478862015437  1.0000
  C   C20       1.0  0.6111070592401382  0.709404865339549  0.7657652114316562  1.0000
  C   C21       1.0  0.45102972039155426  0.3869635900324464  0.28669253745103385  1.0000
  C   C22       1.0  0.5489702802854391  0.6130364088322162  0.7133074626420663  1.0000
  C   C23       1.0  0.37944721610751037  0.3986229056162787  0.37520495934473086  1.0000
  C   C24       1.0  0.6205527829880818  0.601377094529534  0.6247950402245732  1.0000
  C   C25       1.0  0.24260695168311255  0.3124716375563239  0.4180236503160295  1.0000
  C   C26       1.0  0.7573930474142744  0.6875283625934392  0.5819763498938817  1.0000
  C   C27       1.0  0.1858968833202691  0.20960677756467866  0.36647531552829893  1.0000
  C   C28       1.0  0.8141031157771178  0.7903932225850844  0.6335246846816123  1.0000
  C   C29       1.0  0.2563214158870931  0.1994272988939375  0.27772786794280774  1.0000
  C   C30       1.0  0.7436785835032397  0.8005726999723406  0.7222721323083933  1.0000
  C   C31       1.0  0.21730060313746488  0.43240011993691124  0.5607680218956986  1.0000
  C   C32       1.0  0.7826993962528679  0.5675998789293669  0.43923197835550226  1.0000
  C   C33       1.0  0.16522874107365254  0.32962167419618  0.5089134716446277  1.0000
  C   C34       1.0  0.8347712580237344  0.670378325953583  0.49108652856528345  1.0000
  C   C35       1.0  0.02875797880294407  0.2480993208151761  0.5534875966716368  1.0000
  C   C36       1.0  0.9712420202926478  0.7519006793306368  0.4465124028976672  1.0000
  C   C37       1.0  0.5779097348256795  0.8807547921022064  0.2640658858832721  1.0000
  C   C38       1.0  0.422090265558368  0.11924520804594108  0.7359341141685384  1.0000
  C   C39       1.0  0.640107085862198  0.9766770767011781  0.3152365712005322  1.0000
  C   C40       1.0  0.359892913235189  0.023322923448584908  0.684763429009379  1.0000
  C   C41       1.0  0.775140958935199  0.05842153285760383  0.26839066476548634  1.0000
  C   C42       1.0  0.22485904144884863  0.9415784672905437  0.7316093352863242  1.0000
  C   C43       1.0  0.5715918232450782  0.9875193594087922  0.40759381533127564  1.0000
  C   C44       1.0  0.4284081771389693  0.012480640739355247  0.5924061847205347  1.0000
  C   C45       1.0  0.6321099743756818  0.08819672075315961  0.4586610402233824  1.0000
  C   C46       1.0  0.36789002600836573  0.9118032793949878  0.5413389598284282  1.0000
  C   C47       1.0  0.43620761855059764  0.9006198356487437  0.45233913101446127  1.0000
  C   C48       1.0  0.5637923818316549  0.09938016449545371  0.547660868396742  1.0000
  N   N1        1.0  0.061850919530681454  0.7986939474206458  0.06893656642255541  1.0000
  N   N2        1.0  0.9381490808515711  0.20130605272355154  0.9310634329886479  1.0000
  N   N3        1.0  0.31634907451742733  0.14179553698557645  0.04528213520857089  1.0000
  N   N4        1.0  0.68365092586662  0.858204463162571  0.9547178648432395  1.0000
  N   N5        1.0  0.6851308974142208  0.45983565924733005  0.059112399551876985  1.0000
  N   N6        1.0  0.3148691032627724  0.5401643396173326  0.9408876005412232  1.0000
  N   N7        1.0  0.2558168143230426  0.5184234447912092  0.6054170919244022  1.0000
  N   N8        1.0  0.7441831847743444  0.481576555358554  0.3945829082855092  1.0000
  N   N9        1.0  0.9140625739980827  0.18352245137652104  0.5920818059086488  1.0000
  N   N10       1.0  0.08593742509750942  0.8164775487692918  0.40791819366065524  1.0000
  N   N11       1.0  0.5271033078538907  0.8028915472402371  0.22037083814350325  1.0000
  N   N12       1.0  0.47289669282310265  0.19710845162442556  0.779629161949597  1.0000
  N   N13       1.0  0.8866470997797857  0.12451511046123293  0.22690421571022984  1.0000
  N   N14       1.0  0.11335289931760123  0.8754848896885301  0.7730957844996813  1.0000
