data_image0
_chemical_formula_structural       H22C24N2S2I10
_chemical_formula_sum              "H22 C24 N2 S2 I10"
_cell_length_a       7.7795701551518475
_cell_length_b       9.334209868969245
_cell_length_c       13.913672866448707
_cell_angle_alpha    76.52167132131807
_cell_angle_beta     80.02262999225174
_cell_angle_gamma    81.17024747968749

_space_group_name_H-M_alt    "P 1"
_space_group_IT_number       1

loop_
  _space_group_symop_operation_xyz
  'x, y, z'

loop_
  _atom_site_type_symbol
  _atom_site_label
  _atom_site_symmetry_multiplicity
  _atom_site_fract_x
  _atom_site_fract_y
  _atom_site_fract_z
  _atom_site_occupancy
  H   H1        1.0  0.4127570702082051  0.30771842766389385  0.15845582216616766  1.0000
  H   H2        1.0  0.5872429295860976  0.692281572815121  0.8415441777780411  1.0000
  H   H3        1.0  0.36103758179869505  0.3182061714727483  0.30781925621593137  1.0000
  H   H4        1.0  0.6389624179956077  0.6817938290062665  0.6921807437282774  1.0000
  H   H5        1.0  0.18735921627175264  0.8453779369500378  0.530903204928324  1.0000
  H   H6        1.0  0.8126407850042029  0.15462206244173646  0.4690967950108606  1.0000
  H   H7        1.0  0.09731571116572403  0.39556955067383964  0.22728638102686644  1.0000
  H   H8        1.0  0.9026842888232784  0.6044304487217245  0.772713618915086  1.0000
  H   H9        1.0  0.022803583329196596  0.3439620152894918  0.12669568630046485  1.0000
  H   H10       1.0  0.9771964166598058  0.6560379841060725  0.8733043136414875  1.0000
  H   H11       1.0  0.49083711852501377  0.19323930570854242  0.022673138081359567  1.0000
  H   H12       1.0  0.5091628812692889  0.8067606947704724  0.9773268618628492  1.0000
  H   H13       1.0  0.30544191699391443  0.31334477793568927  0.9786410462792864  1.0000
  H   H14       1.0  0.6945580842820412  0.6866552214560849  0.02135895365989831  1.0000
  H   H15       1.0  0.13987420159362937  0.8012126679879004  0.20026556387994768  1.0000
  H   H16       1.0  0.8601257982006734  0.19878733249111435  0.7997344360642611  1.0000
  H   H17       1.0  0.13268286191555673  0.7589146906717332  0.38475664416314653  1.0000
  H   H18       1.0  0.8673171378787459  0.24108530980728124  0.6152433557810624  1.0000
  H   H19       1.0  0.2798407950767453  0.039376016620324056  0.600981901742124  1.0000
  H   H20       1.0  0.7201592047175575  0.9606239838586905  0.39901809820208495  1.0000
  H   H21       1.0  0.3679099637043103  0.2732741779010827  0.4876037194725296  1.0000
  H   H22       1.0  0.6320900360899924  0.726725822577932  0.5123962804716792  1.0000
  C   C1        1.0  0.2993573861572061  0.26665464129962224  0.14091194738697552  1.0000
  C   C2        1.0  0.7006426138317965  0.7333453580959423  0.8590880525549769  1.0000
  C   C3        1.0  0.2709141951933383  0.10583623260776445  0.3153149064825262  1.0000
  C   C4        1.0  0.729085804612974  0.8941637665491231  0.6846850942061731  1.0000
  C   C5        1.0  0.32224622312742557  0.21483422011078257  0.35542419932007413  1.0000
  C   C6        1.0  0.6777537781485299  0.7851657792809915  0.6445758006191105  1.0000
  C   C7        1.0  0.22493341780304185  0.9491103525526421  0.4827049765331088  1.0000
  C   C8        1.0  0.7750665821859606  0.05088964684292214  0.5172950234088437  1.0000
  C   C9        1.0  0.13451722757362036  0.37706899545059663  0.15116575739978538  1.0000
  C   C10       1.0  0.8654827722206824  0.622931005028418  0.8488342425444234  1.0000
  C   C11       1.0  0.3486680330539699  0.22411140057511772  0.03916184218962418  1.0000
  C   C12       1.0  0.6513319669350326  0.7758885988204465  0.9608381577523284  1.0000
  C   C13       1.0  0.1746357819847189  0.8842287021430858  0.23472292482966495  1.0000
  C   C14       1.0  0.8253642180042837  0.1157712972524783  0.7652770751122875  1.0000
  C   C15       1.0  0.22177593764170675  0.970334705705955  0.37896905363159117  1.0000
  C   C16       1.0  0.7782240621525959  0.029665294773059892  0.6210309463126177  1.0000
  C   C17       1.0  0.22630684275528237  0.017963203453327158  0.173522667379811  1.0000
  C   C18       1.0  0.7736931570390204  0.9820367970256874  0.8264773325643978  1.0000
  C   C19       1.0  0.17181524766166645  0.8618907165402119  0.33602966423971486  1.0000
  C   C20       1.0  0.8281847523273358  0.13810928285535232  0.6639703357022376  1.0000
  C   C21       1.0  0.27634436173904187  0.05680501028741906  0.5211339708992342  1.0000
  C   C22       1.0  0.7236556382499607  0.9431949891081451  0.4788660290427183  1.0000
  C   C23       1.0  0.3262414796309456  0.18894510950978008  0.4571166848570727  1.0000
  C   C24       1.0  0.673758520358057  0.811054889885784  0.5428833150848799  1.0000
  N   N1        1.0  0.2684962857150506  0.12456944750943807  0.21372804239895685  1.0000
  N   N2        1.0  0.731503714273952  0.8754305518861262  0.7862719575429957  1.0000
  S   S1        1.0  0.24054805823682024  0.06140495007067834  0.04559211591353204  1.0000
  S   S2        1.0  0.7594519415574824  0.9385950504083362  0.9544078840306768  1.0000
  I   I1        1.0  0.6926494494908934  0.8374397732757626  0.21513839398289658  1.0000
  I   I2        1.0  0.3073505504981092  0.16256022611980153  0.784861605959056  1.0000
  I   I3        1.0  0.7590399554082664  0.14276356288109174  0.1821255011108017  1.0000
  I   I4        1.0  0.24096004438603613  0.857236437597923  0.8178744988334071  1.0000
  I   I5        1.0  0.6362674707919833  0.5220092039448919  0.25423086617600116  1.0000
  I   I6        1.0  0.3637325290023193  0.47799079653412296  0.7457691337682075  1.0000
  I   I7        1.0  0.1762490180734214  0.5908683271359273  0.055427460397561815  1.0000
  I   I8        1.0  0.823750981915581  0.409131672259637  0.9445725395443907  1.0000
  I   I9        1.0  0.8980177482949938  0.4941421802096216  0.42586551319155486  1.0000
  I   I10       1.0  0.10198225149930876  0.5058578202693931  0.574134486752654  1.0000
