data_image0
_chemical_formula_structural       H32C52S4I3
_chemical_formula_sum              "H32 C52 S4 I3"
_cell_length_a       11.470579434832658
_cell_length_b       13.068812414089365
_cell_length_c       6.997850898795214
_cell_angle_alpha    88.60887344616313
_cell_angle_beta     87.874050440319
_cell_angle_gamma    77.17453654074826

_space_group_name_H-M_alt    "P 1"
_space_group_IT_number       1

loop_
  _space_group_symop_operation_xyz
  'x, y, z'

loop_
  _atom_site_type_symbol
  _atom_site_label
  _atom_site_symmetry_multiplicity
  _atom_site_fract_x
  _atom_site_fract_y
  _atom_site_fract_z
  _atom_site_occupancy
  H   H1        1.0  0.7854100480151959  0.5552564506142902  0.35739066364021027  1.0000
  H   H2        1.0  0.21458995196684094  0.44474354880448486  0.6426093358940858  1.0000
  H   H3        1.0  0.2082637170416971  0.632103410166952  0.6785787276117141  1.0000
  H   H4        1.0  0.7917362827003467  0.3678965900264303  0.32142127334765624  1.0000
  H   H5        1.0  0.3380856565286265  0.8782072483663322  0.8754705078695113  1.0000
  H   H6        1.0  0.6619143434158541  0.12179275104225835  0.12452949309490742  1.0000
  H   H7        1.0  0.15228349350163006  0.0026874919212843827  0.9630485867531438  1.0000
  H   H8        1.0  0.84771650627797  0.9973125082822826  0.03695141277610383  1.0000
  H   H9        1.0  0.9653822625773052  0.006564853719656366  0.7832126192684802  1.0000
  H   H10       1.0  0.03461773720229479  0.9934351464839105  0.21678738026076755  1.0000
  H   H11       1.0  0.970379431095289  0.8790749300450144  0.5246311043552983  1.0000
  H   H12       1.0  0.029620568886747883  0.12092506937376063  0.47536889517899766  1.0000
  H   H13       1.0  0.1586460782717662  0.7552057796527261  0.43351217924115515  1.0000
  H   H14       1.0  0.8413539216727143  0.24479421975586446  0.5664878217232636  1.0000
  H   H15       1.0  0.12296115023852909  0.4065498522370188  0.09628589082378233  1.0000
  H   H16       1.0  0.8770388497059514  0.5934501471715719  0.9037141101406364  1.0000
  H   H17       1.0  0.26391728087452715  0.7177464592907767  0.15182239078743776  1.0000
  H   H18       1.0  0.7360827191075094  0.28225354012799836  0.8481776087468581  1.0000
  H   H19       1.0  0.11459442697114904  0.7064873902679107  0.8979653251758108  1.0000
  H   H20       1.0  0.885405572808451  0.293512609935656  0.10203467435343684  1.0000
  H   H21       1.0  0.9271090629613116  0.8300826333407535  0.9822878194885507  1.0000
  H   H22       1.0  0.07289093681828836  0.1699173668628135  0.017712180040696874  1.0000
  H   H23       1.0  0.818294901624058  0.8108199092110844  0.29192375758820427  1.0000
  H   H24       1.0  0.18170509898854592  0.18918009098586974  0.7080762433838835  1.0000
  H   H25       1.0  0.8995435978377573  0.6605822390692625  0.5121100363863436  1.0000
  H   H26       1.0  0.10045640194184272  0.33941776113430444  0.48788996314290417  1.0000
  H   H27       1.0  0.08408580130220038  0.5299115887998511  0.41777983445131883  1.0000
  H   H28       1.0  0.9159141984398435  0.47008841139353125  0.5822201665080516  1.0000
  H   H29       1.0  0.46368881670404627  0.8670582296716399  0.5775091139536167  1.0000
  H   H30       1.0  0.536311184148551  0.13294176975070682  0.4224908855933966  1.0000
  H   H31       1.0  0.5480265768821126  0.22404645575285176  0.8963950798312893  1.0000
  H   H32       1.0  0.4519734228974874  0.7759535444507152  0.1036049196979583  1.0000
  C   C1        1.0  0.47389454627494665  0.7826293172568612  0.5635319801755504  1.0000
  C   C2        1.0  0.5261054536695339  0.2173706821517294  0.43646802078886826  1.0000
  C   C3        1.0  0.3787888627814189  0.7366156386844452  0.5937682685263209  1.0000
  C   C4        1.0  0.6212111372006177  0.26338436073432986  0.40623173100797494  1.0000
  C   C5        1.0  0.38827574690231287  0.6245959720148466  0.574082638920989  1.0000
  C   C6        1.0  0.611724253912728  0.3754040273973158  0.425917362056147  1.0000
  C   C7        1.0  0.4976062054964254  0.5552459219267748  0.5110020992331747  1.0000
  C   C8        1.0  0.5023937951537348  0.4447540782803639  0.4889979003087902  1.0000
  C   C9        1.0  0.6037364522182022  0.5922298366171383  0.46758102755938746  1.0000
  C   C10       1.0  0.3962635475238417  0.40777016357624396  0.532418973399983  1.0000
  C   C11       1.0  0.7072464816892808  0.524231992794339  0.3981605639860631  1.0000
  C   C12       1.0  0.29275351896087937  0.4757680074127997  0.6018394355559019  1.0000
  C   C13       1.0  0.2895921974261022  0.5813394054728013  0.6223554807720254  1.0000
  C   C14       1.0  0.7104078023534979  0.4186605947307655  0.37764451875722227  1.0000
  C   C15       1.0  0.2627495417854409  0.8071200836655492  0.6488424685709716  1.0000
  C   C16       1.0  0.7372504579941591  0.1928799165380176  0.35115753095827607  1.0000
  C   C17       1.0  0.2578095248042925  0.8778990747126733  0.7975993042777085  1.0000
  C   C18       1.0  0.7421904751777442  0.12210092470610197  0.20240069525658733  1.0000
  C   C19       1.0  0.1519622603442248  0.9490931249055717  0.8463575014074878  1.0000
  C   C20       1.0  0.8480377393978191  0.05090687528781062  0.15364249955188272  1.0000
  C   C21       1.0  0.04828932693778507  0.9503613760562712  0.7479260002266955  1.0000
  C   C22       1.0  0.9517106728418149  0.04963862414729566  0.2520739993025521  1.0000
  C   C23       1.0  0.051235442183103434  0.8789087837070939  0.6015997245916855  1.0000
  C   C24       1.0  0.9487645575964967  0.12109121649647286  0.398400274937562  1.0000
  C   C25       1.0  0.15734652240000274  0.808415460095538  0.551279868818122  1.0000
  C   C26       1.0  0.8426534773795972  0.19158454010802886  0.44872013071112565  1.0000
  C   C27       1.0  0.2103390318136869  0.42630104184591533  0.07844778802228676  1.0000
  C   C28       1.0  0.789660967965913  0.5736989583576515  0.9215522115069609  1.0000
  C   C29       1.0  0.22237241898431087  0.5268806759454219  0.09840585292459797  1.0000
  C   C30       1.0  0.7776275807952892  0.47311932425814496  0.9015941466046498  1.0000
  C   C31       1.0  0.33679078699173953  0.5574142771765377  0.07196631839890724  1.0000
  C   C32       1.0  0.6632092136584207  0.44258572303060095  0.9280336811430577  1.0000
  C   C33       1.0  0.44439074270270246  0.4831404509582658  0.014915216600608659  1.0000
  C   C34       1.0  0.5556092570768976  0.5168595492453011  0.9850847829286391  1.0000
  C   C35       1.0  0.4458252429044517  0.375238933725826  0.984228651954673  1.0000
  C   C36       1.0  0.554174756837592  0.6247610664675564  0.015771349004697607  1.0000
  C   C37       1.0  0.5501271027205623  0.30549797325868633  0.922953795057417  1.0000
  C   C38       1.0  0.4498728980944786  0.6945020261534761  0.07704620591971899  1.0000
  C   C39       1.0  0.3437011277155995  0.66116232985803  0.10467902961639411  1.0000
  C   C40       1.0  0.6562988722664373  0.3388376695607449  0.8953209699179017  1.0000
  C   C41       1.0  0.11168760958351615  0.6066453278842866  0.15003212019554235  1.0000
  C   C42       1.0  0.8883123903609644  0.393354671524304  0.8499678807688765  1.0000
  C   C43       1.0  0.06676895918551157  0.6933793004066627  0.03047490754928238  1.0000
  C   C44       1.0  0.9332310405940885  0.3066206997969041  0.9695250919799653  1.0000
  C   C45       1.0  0.9610222183536408  0.764961500227182  0.0799230499528929  1.0000
  C   C46       1.0  0.03897778138840308  0.23503849996620024  0.9200769510064776  1.0000
  C   C47       1.0  0.8995939505864025  0.753423458664707  0.2524389603732113  1.0000
  C   C48       1.0  0.10040604915564146  0.24657654152867545  0.7475610405861591  1.0000
  C   C49       1.0  0.9444637517742692  0.668694665778165  0.37413005753911727  1.0000
  C   C50       1.0  0.055536248207767515  0.3313053336406101  0.6258699419951785  1.0000
  C   C51       1.0  0.04832580432451154  0.5952777860391764  0.32195257167739605  1.0000
  C   C52       1.0  0.9516741954550885  0.4047222141643905  0.6780474278518517  1.0000
  S   S1        1.0  0.6160242835488234  0.7210395665420453  0.4960606151058296  1.0000
  S   S2        1.0  0.38397571623077675  0.2789604336615215  0.503939384423418  1.0000
  S   S3        1.0  0.32146003557269137  0.3199107140086758  0.019179037029004167  1.0000
  S   S4        1.0  0.6785399641693525  0.6800892861847067  0.9808209639303663  1.0000
  I   I1        1.0  0.500000000343153  0.9999999997414577  0.999999999434519  1.0000
  I   I2        1.0  0.6895890194974466  0.9655986317461458  0.6992049463008018  1.0000
  I   I3        1.0  0.3104109802445972  0.034401368447236624  0.30079505465856876  1.0000
