data_image0
_chemical_formula_structural       H40C52N6O10
_chemical_formula_sum              "H40 C52 N6 O10"
_cell_length_a       10.819215311744038
_cell_length_b       10.652796216367141
_cell_length_c       11.383760459824973
_cell_angle_alpha    62.824471924070245
_cell_angle_beta     65.02152659628457
_cell_angle_gamma    68.21779190806274

_space_group_name_H-M_alt    "P 1"
_space_group_IT_number       1

loop_
  _space_group_symop_operation_xyz
  'x, y, z'

loop_
  _atom_site_type_symbol
  _atom_site_label
  _atom_site_symmetry_multiplicity
  _atom_site_fract_x
  _atom_site_fract_y
  _atom_site_fract_z
  _atom_site_occupancy
  H   H1        1.0  0.5019895305975186  0.1174933322057015  0.7865697674954094  1.0000
  H   H2        1.0  0.4980104697472391  0.8825066674789955  0.21343023162697022  1.0000
  H   H3        1.0  0.2527147890208743  0.2252596401271454  0.4935734233663615  1.0000
  H   H4        1.0  0.7472852109660715  0.7747403605739047  0.5064265757409854  1.0000
  H   H5        1.0  0.9359932298635286  0.3631416382258877  0.6985442108430914  1.0000
  H   H6        1.0  0.06400677012341709  0.6368583624751624  0.30145578826425556  1.0000
  H   H7        1.0  0.5294771879345015  0.27159359723570775  0.8566375047716837  1.0000
  H   H8        1.0  0.470522812052444  0.7284064034653422  0.1433624943356633  1.0000
  H   H9        1.0  0.8636316266980133  0.08244370708666318  0.5663024482347161  1.0000
  H   H10       1.0  0.13636837328893206  0.917556293614387  0.4336975508726309  1.0000
  H   H11       1.0  0.43596351417052154  0.511562023718571  0.7539197696181306  1.0000
  H   H12       1.0  0.5640364858164241  0.4884379769824791  0.24608022948921635  1.0000
  H   H13       1.0  0.23722133488979588  0.5074934448826609  0.9644597028756333  1.0000
  H   H14       1.0  0.7627786647724137  0.4925065554474407  0.03554029726881065  1.0000
  H   H15       1.0  0.1629692582330331  0.49809513758595975  0.5700294755695408  1.0000
  H   H16       1.0  0.8370307417869886  0.5019048617277889  0.4299705245899359  1.0000
  H   H17       1.0  0.4035873370519845  0.4952243429023357  0.4345611925791511  1.0000
  H   H18       1.0  0.596412662968037  0.5047756564114131  0.5654388075803256  1.0000
  H   H19       1.0  0.9688852429156778  0.5013621382233894  0.7921275149969275  1.0000
  H   H20       1.0  0.031114756746531802  0.4986378621067123  0.2078724851475165  1.0000
  H   H21       1.0  0.28084196478677453  0.8730150402160642  0.5659877147418119  1.0000
  H   H22       1.0  0.7191580352332468  0.12698495909768454  0.4340122854176648  1.0000
  H   H23       1.0  0.5289075067524409  0.8313063790901866  0.4307933235538535  1.0000
  H   H24       1.0  0.4710924941947258  0.16869362021623438  0.5692066766051459  1.0000
  H   H25       1.0  0.8380890861423911  0.8517600523453909  0.7859515769445053  1.0000
  H   H26       1.0  0.16191091420236653  0.14823994733930623  0.21404842217787423  1.0000
  H   H27       1.0  0.07665566861566366  0.8568924723039111  0.7208635576424381  1.0000
  H   H28       1.0  0.923344331371282  0.14310752839713897  0.27913644146490885  1.0000
  H   H29       1.0  0.7354458465363652  0.8624575189536504  0.2450077268738641  1.0000
  H   H30       1.0  0.26455415348365635  0.1375424803600984  0.7549922732856125  1.0000
  H   H31       1.0  0.17163712985517307  0.8462793364651644  0.9462538307783744  1.0000
  H   H32       1.0  0.8283628698070364  0.15372066386493705  0.05374616936606971  1.0000
  H   H33       1.0  0.5990621886669376  0.8609579558897509  0.9553195193822358  1.0000
  H   H34       1.0  0.40093781099527176  0.1390420444403508  0.04468048076220817  1.0000
  H   H35       1.0  0.4115306745563335  0.8103278997237806  0.9039022042654092  1.0000
  H   H36       1.0  0.5884693260330213  0.1896721005989931  0.09609779587855757  1.0000
  H   H37       1.0  0.9760494100432738  0.857573603156771  0.0896282824156062  1.0000
  H   H38       1.0  0.023950590546081042  0.14242639716600267  0.9103717177283606  1.0000
  H   H39       1.0  0.6592918319121067  0.7742563747481052  0.7492015424202508  1.0000
  H   H40       1.0  0.3407081677501028  0.2257436255819965  0.2507984577241932  1.0000
  C   C1        1.0  0.7265048984719238  0.3271689123145891  0.7847724952241316  1.0000
  C   C2        1.0  0.2734951018728338  0.6728310873701081  0.21522750389824796  1.0000
  C   C3        1.0  0.8658727383147045  0.3094184655788997  0.7021965281773799  1.0000
  C   C4        1.0  0.13412726170531697  0.690581533734849  0.29780347198209683  1.0000
  C   C5        1.0  0.6371809878899624  0.25603796777016113  0.7910209751289882  1.0000
  C   C6        1.0  0.3628190124547952  0.743962031914536  0.20897902399339147  1.0000
  C   C7        1.0  0.8238547286739664  0.15273013125115045  0.6261949187398314  1.0000
  C   C8        1.0  0.17614527191538856  0.8472698690716233  0.3738050814041354  1.0000
  C   C9        1.0  0.9134851388545332  0.22108349640918062  0.6236926006613482  1.0000
  C   C10       1.0  0.08651486080767626  0.778916503920921  0.3763073994830957  1.0000
  C   C11       1.0  0.6843865903422836  0.1689187108860861  0.7114168815189394  1.0000
  C   C12       1.0  0.3156134093199262  0.8310812894440154  0.2885831186255045  1.0000
  C   C13       1.0  0.6698552040085559  0.4260309552513387  0.8687406091594777  1.0000
  C   C14       1.0  0.3301447959783895  0.5739690454497113  0.1312593899478693  1.0000
  C   C15       1.0  0.0627425119140825  0.19867381960604572  0.5352394938617485  1.0000
  C   C16       1.0  0.9372574877481269  0.801326180724056  0.4647605062826954  1.0000
  C   C17       1.0  0.3186965527975496  0.5046976561356887  0.6401656764103036  1.0000
  C   C18       1.0  0.6813034468646598  0.495302344194413  0.3598343237341403  1.0000
  C   C19       1.0  0.33639714225606865  0.509149864623713  0.7536115583476078  1.0000
  C   C20       1.0  0.663602857730877  0.490850136077337  0.24638844075973912  1.0000
  C   C21       1.0  0.22391061623760425  0.5074355918924716  0.873905566057012  1.0000
  C   C22       1.0  0.7760893837824173  0.4925644074212772  0.12609443410246476  1.0000
  C   C23       1.0  0.18364052634528694  0.5027565028955262  0.6536597954759517  1.0000
  C   C24       1.0  0.8163594736416585  0.4972434978055238  0.3463402036313954  1.0000
  C   C25       1.0  0.43287335218709466  0.49970029547291106  0.5131155760075671  1.0000
  C   C26       1.0  0.5671266484022601  0.5002997048498626  0.4868844241363997  1.0000
  C   C27       1.0  0.07505128404536492  0.5040971960875983  0.7764295924306921  1.0000
  C   C28       1.0  0.9249487162993927  0.4959028035970988  0.22357040669168757  1.0000
  C   C29       1.0  0.9289708523341417  0.8571650432548636  0.9207812610245291  1.0000
  C   C30       1.0  0.07102914825521327  0.14283495706791013  0.07921873911943755  1.0000
  C   C31       1.0  0.32370502687960634  0.8411032424302872  0.7505674783901394  1.0000
  C   C32       1.0  0.6762949731073392  0.1588967582707628  0.24943252071720765  1.0000
  C   C33       1.0  0.35942715244822504  0.8491801596482972  0.6135274802176923  1.0000
  C   C34       1.0  0.6405728481411297  0.15081984067447668  0.38647251992627446  1.0000
  C   C35       1.0  0.499198403730104  0.8265682595696049  0.5364966636872146  1.0000
  C   C36       1.0  0.5008015962899176  0.17343173974414397  0.46350333647226194  1.0000
  C   C37       1.0  0.8192955104397522  0.855112972091126  0.8865452118872695  1.0000
  C   C38       1.0  0.18070448922245716  0.1448870282389756  0.11345478825717446  1.0000
  C   C39       1.0  0.06798203264220647  0.8561532546651092  0.8203781257974712  1.0000
  C   C40       1.0  0.9320179673778152  0.14384674464863953  0.17962187436200538  1.0000
  C   C41       1.0  0.7609240770633411  0.861944533736907  0.1417505876761157  1.0000
  C   C42       1.0  0.23907592259886837  0.13805546659319473  0.8582494124683282  1.0000
  C   C43       1.0  0.18194160434919807  0.8508411490250387  0.8448762493514866  1.0000
  C   C44       1.0  0.8180583953130115  0.14915885130506282  0.15512375079295734  1.0000
  C   C45       1.0  0.685946943545957  0.8594432911790941  0.9813226408454072  1.0000
  C   C46       1.0  0.31405305704339775  0.14055670914367951  0.018677359298559598  1.0000
  C   C47       1.0  0.43353605895636843  0.8165629637704492  0.7991574677406409  1.0000
  C   C48       1.0  0.5664639419907983  0.18343703553597152  0.20084253241835853  1.0000
  C   C49       1.0  0.8967702168364853  0.8592997650452041  0.053393073188617385  1.0000
  C   C50       1.0  0.10322978350827217  0.140700234639493  0.9466069259337623  1.0000
  C   C51       1.0  0.5709585597576845  0.7953496635823597  0.7151600949479068  1.0000
  C   C52       1.0  0.42904144022926116  0.20465033711869013  0.28483990415944027  1.0000
  N   N1        1.0  0.09871831407668642  0.5056173568580921  0.8814263967254319  1.0000
  N   N2        1.0  0.9012816868374045  0.49438264383563013  0.1185736023814378  1.0000
  N   N3        1.0  0.6030225056347941  0.7984018768021734  0.5865908242031487  1.0000
  N   N4        1.0  0.3969774943852275  0.20159812251157544  0.413409175956328  1.0000
  N   N5        1.0  0.6555561947121673  0.8639780065845387  0.10683909369706412  1.0000
  N   N6        1.0  0.3444438049500423  0.13602199374556284  0.8931609064473798  1.0000
  O   O1        1.0  0.5996663439118062  0.0993804018955366  0.7160931938630737  1.0000
  O   O2        1.0  0.4003336561082152  0.9006195974182121  0.28390680629640297  1.0000
  O   O3        1.0  0.14326241461639042  0.2465644890259856  0.5589671027297961  1.0000
  O   O4        1.0  0.8567375854036311  0.7534355102877632  0.44103289742968055  1.0000
  O   O5        1.0  0.10406184585998182  0.1403126585875923  0.44870177938492894  1.0000
  O   O6        1.0  0.8959381547293729  0.8596873417351816  0.5512982207590377  1.0000
  O   O7        1.0  0.5363716467732241  0.45087005010051434  0.917628462225854  1.0000
  O   O8        1.0  0.4636283528889854  0.5491299502295872  0.08237153791858995  1.0000
  O   O9        1.0  0.7556649660060986  0.46949149450855643  0.8799544945658112  1.0000
  O   O10       1.0  0.24433503401392306  0.5305085048051923  0.12004550559366543  1.0000
