data_image0
_chemical_formula_structural       C10S4I6
_chemical_formula_sum              "C10 S4 I6"
_cell_length_a       6.411206919740663
_cell_length_b       20.594013529496713
_cell_length_c       3.786900662410487
_cell_angle_alpha    90.0
_cell_angle_beta     94.97391870505625
_cell_angle_gamma    90.0

_space_group_name_H-M_alt    "P 1"
_space_group_IT_number       1

loop_
  _space_group_symop_operation_xyz
  'x, y, z'

loop_
  _atom_site_type_symbol
  _atom_site_label
  _atom_site_symmetry_multiplicity
  _atom_site_fract_x
  _atom_site_fract_y
  _atom_site_fract_z
  _atom_site_occupancy
  C   C1        1.0  0.33601660801745975  0.24999999988471514  0.04060189994150785  1.0000
  C   C2        1.0  0.6639833930174704  0.7500000001397235  0.9593980987851333  1.0000
  C   C3        1.0  0.7924501182654163  0.534189182416685  0.47121124878571624  1.0000
  C   C4        1.0  0.2075498815204442  0.03418918264725482  0.5287887528411136  1.0000
  C   C5        1.0  0.2075498815204442  0.46581081760775345  0.5287887528411136  1.0000
  C   C6        1.0  0.7924501182654163  0.9658108173771838  0.47121124878571624  1.0000
  C   C7        1.0  0.9582356884626974  0.5707027041215713  0.45200181403137435  1.0000
  C   C8        1.0  0.041764311323163085  0.07070270386656309  0.5479981875954555  1.0000
  C   C9        1.0  0.041764311323163085  0.42929729590286714  0.5479981875954555  1.0000
  C   C10       1.0  0.9582356884626974  0.9292972961578755  0.45200181403137435  1.0000
  S   S1        1.0  0.7889332109247383  0.4527151939881165  0.527054198128135  1.0000
  S   S2        1.0  0.21106679039977355  0.9527151942431247  0.47294580323613367  1.0000
  S   S3        1.0  0.21106679039977355  0.547284806036322  0.47294580323613367  1.0000
  S   S4        1.0  0.7889332109247383  0.047284805781313756  0.527054198128135  1.0000
  I   I1        1.0  0.4924243723052353  0.3365139791752561  0.11378894535132435  1.0000
  I   I2        1.0  0.507575628729695  0.8365139794302644  0.8862110533753169  1.0000
  I   I3        1.0  0.507575628729695  0.6634860208491824  0.8862110533753169  1.0000
  I   I4        1.0  0.4924243723052353  0.1634860205941741  0.11378894535132435  1.0000
  I   I5        1.0  0.017867608591246725  0.24999999988471514  0.9370329071809621  1.0000
  I   I6        1.0  0.9821323909050321  0.7500000001397235  0.06296709180824021  1.0000
