data_image0
_chemical_formula_structural       H152C72N4O24I12
_chemical_formula_sum              "H152 C72 N4 O24 I12"
_cell_length_a       10.812854698495153
_cell_length_b       16.421676011136555
_cell_length_c       14.655589068909409
_cell_angle_alpha    90.0
_cell_angle_beta     90.45706788699613
_cell_angle_gamma    90.0

_space_group_name_H-M_alt    "P 1"
_space_group_IT_number       1

loop_
  _space_group_symop_operation_xyz
  'x, y, z'

loop_
  _atom_site_type_symbol
  _atom_site_label
  _atom_site_symmetry_multiplicity
  _atom_site_fract_x
  _atom_site_fract_y
  _atom_site_fract_z
  _atom_site_occupancy
  H   H1        1.0  0.9506321868985873  0.14667177201441448  0.46235126909650204  1.0000
  H   H2        1.0  0.04936781339935509  0.6466717716753335  0.03764873077196595  1.0000
  H   H3        1.0  0.049367813175552916  0.8533282285253261  0.5376487309098332  1.0000
  H   H4        1.0  0.9506321866747851  0.3533282282554558  0.9623512692343694  1.0000
  H   H5        1.0  0.9033295702568596  0.1630578150600522  0.5781690274349743  1.0000
  H   H6        1.0  0.0966704295934783  0.6630578153299225  0.9218309727092283  1.0000
  H   H7        1.0  0.09667042981728047  0.8369421848707372  0.421830972571361  1.0000
  H   H8        1.0  0.9033295704806618  0.33694218460086683  0.078169027297107  1.0000
  H   H9        1.0  0.10615960172667076  0.10524416197396311  0.6319678502738062  1.0000
  H   H10       1.0  0.8938403981236671  0.6052441622438335  0.8680321498703963  1.0000
  H   H11       1.0  0.8938403983474693  0.8947558379568262  0.36803214973252907  1.0000
  H   H12       1.0  0.10615960195047293  0.39475583768695593  0.13196785013593895  1.0000
  H   H13       1.0  0.007765036347802432  0.03411559755655086  0.5753386828230359  1.0000
  H   H14       1.0  0.9922349644273677  0.5341155972174699  0.9246613173218563  1.0000
  H   H15       1.0  0.9922349637263378  0.9658844023742384  0.4246613171832993  1.0000
  H   H16       1.0  0.0077650356467724585  0.46588440271331943  0.07533868268447896  1.0000
  H   H17       1.0  0.28181530180701  0.9884754052504622  0.45980229576760556  1.0000
  H   H18       1.0  0.7181846984909322  0.4884754049805919  0.04019770410086243  1.0000
  H   H19       1.0  0.7181846982671302  0.01152459468032713  0.5401977042387297  1.0000
  H   H20       1.0  0.28181530158320783  0.5115245949501974  0.9598022959054727  1.0000
  H   H21       1.0  0.1880254969439086  0.9585132491546821  0.5538777458503632  1.0000
  H   H22       1.0  0.8119745029064291  0.45851324949376315  0.9461222542938393  1.0000
  H   H23       1.0  0.8119745031302315  0.04148675077610717  0.44612225415597206  1.0000
  H   H24       1.0  0.1880254971677108  0.5414867504370262  0.05387774571249592  1.0000
  H   H25       1.0  0.29980986921201214  0.06330468152550348  0.6520049264619978  1.0000
  H   H26       1.0  0.7001901306383259  0.5633046817953737  0.8479950736822047  1.0000
  H   H27       1.0  0.700190130862128  0.9366953184052859  0.3479950735443374  1.0000
  H   H28       1.0  0.2998098694358143  0.43669531813541557  0.15200492632413062  1.0000
  H   H29       1.0  0.39302562135561353  0.9812306922309556  0.613890356102724  1.0000
  H   H30       1.0  0.6069743784947246  0.48123069196108537  0.8861096440414786  1.0000
  H   H31       1.0  0.6069743787185267  0.018769307699833718  0.3861096439036113  1.0000
  H   H32       1.0  0.3930256215794157  0.518769307969704  0.11389035596485672  1.0000
  H   H33       1.0  0.5697107480595186  0.07897634560080685  0.6361167274595773  1.0000
  H   H34       1.0  0.4302892517843763  0.5789763458706771  0.8638832720022704  1.0000
  H   H35       1.0  0.4302892520146215  0.9210236543299825  0.36388327254675806  1.0000
  H   H36       1.0  0.5697107482897638  0.42102365406011216  0.13611672800406482  1.0000
  H   H37       1.0  0.4655321387688437  0.1597691610905441  0.6613569260545727  1.0000
  H   H38       1.0  0.5344678610750513  0.6597691607514632  0.838643073407275  1.0000
  H   H39       1.0  0.5344678613052964  0.8402308394491964  0.33864307395176263  1.0000
  H   H40       1.0  0.4655321389990888  0.34023083917932617  0.16135692659906026  1.0000
  H   H41       1.0  0.6685293115053118  0.20389376320232636  0.5937407741757899  1.0000
  H   H42       1.0  0.33147068833858323  0.7038937634721966  0.9062592252860576  1.0000
  H   H43       1.0  0.3314706885688284  0.7961062367284629  0.4062592258305453  1.0000
  H   H44       1.0  0.668529311729114  0.2961062364585927  0.09374077403792269  1.0000
  H   H45       1.0  0.6284385662670933  0.15138097221709512  0.49062057914868695  1.0000
  H   H46       1.0  0.37156143311245987  0.6513809724869654  0.009379421401446163  1.0000
  H   H47       1.0  0.3715614338070468  0.8486190277136942  0.5093794208576483  1.0000
  H   H48       1.0  0.6284385669616802  0.34861902744382395  0.9906205786048891  1.0000
  H   H49       1.0  0.616476248883183  0.28021663421439763  0.40377637819035855  1.0000
  H   H50       1.0  0.38352375048992715  0.7802166344842679  0.0962236216774197  1.0000
  H   H51       1.0  0.3835237511909571  0.7197833657163918  0.5962236218159768  1.0000
  H   H52       1.0  0.6164762486593808  0.21978336544652144  0.9037763783282259  1.0000
  H   H53       1.0  0.6724570314633342  0.32667764766287777  0.5060618527987291  1.0000
  H   H54       1.0  0.32754296838700364  0.8266776479327481  0.9939381473454735  1.0000
  H   H55       1.0  0.3275429686108058  0.6733223522679116  0.4939381472076061  1.0000
  H   H56       1.0  0.6724570316871366  0.17332235199804125  0.00606185266086186  1.0000
  H   H57       1.0  0.4749083103183405  0.4063778913598314  0.5163953470977263  1.0000
  H   H58       1.0  0.5250916895319975  0.9063778916297017  0.9836046530464763  1.0000
  H   H59       1.0  0.5250916897557996  0.593622108570958  0.48360465290860893  1.0000
  H   H60       1.0  0.47490831054214266  0.09362210830108766  0.016395346959859006  1.0000
  H   H61       1.0  0.5690524462432481  0.42947651720915153  0.41913968447309763  1.0000
  H   H62       1.0  0.43094755406113705  0.9294765168700706  0.08086031607772526  1.0000
  H   H63       1.0  0.430947553830892  0.5705234827216378  0.5808603155332377  1.0000
  H   H64       1.0  0.5690524460130031  0.07052348306071873  0.9191396839286099  1.0000
  H   H65       1.0  0.2793946841726224  0.4192309393591258  0.31207216463691767  1.0000
  H   H66       1.0  0.7206053161253198  0.9192309390200448  0.1879278352315503  1.0000
  H   H67       1.0  0.7206053158950747  0.5807690611806148  0.6879278346870626  1.0000
  H   H68       1.0  0.27939468394882033  0.0807690609107445  0.8120721647747848  1.0000
  H   H69       1.0  0.3825315020325722  0.487276551100717  0.3681888887054899  1.0000
  H   H70       1.0  0.6174684982653701  0.9872765513705872  0.13181111116297808  1.0000
  H   H71       1.0  0.6174684980415679  0.5127234488300724  0.6318111113008454  1.0000
  H   H72       1.0  0.38253150180876994  0.012723449169153295  0.8681888888433572  1.0000
  H   H73       1.0  0.2809314320114265  0.4469668513142221  0.5198240465767024  1.0000
  H   H74       1.0  0.7190685678324684  0.9469668509751411  0.9801759528851454  1.0000
  H   H75       1.0  0.7190685680627136  0.5530331486165673  0.48017595342963293  1.0000
  H   H76       1.0  0.28093143224167166  0.053033148955648216  0.01982404712118998  1.0000
  H   H77       1.0  0.18273596382966215  0.49819153687186757  0.4400549137778259  1.0000
  H   H78       1.0  0.817264035549891  0.9981915371417378  0.05994508677230727  1.0000
  H   H79       1.0  0.8172640353196459  0.5018084630589218  0.5599450862278197  1.0000
  H   H80       1.0  0.18273596452424917  0.0018084627890514924  0.9400549132340279  1.0000
  H   H81       1.0  0.0013143023536240118  0.4304721945071881  0.5051958733801583  1.0000
  H   H82       1.0  0.998685697496714  0.9304721947770583  0.9948041267640442  1.0000
  H   H83       1.0  0.998685696795684  0.5695278054236012  0.49480412662548723  1.0000
  H   H84       1.0  0.0013143025774261766  0.06952780515373094  0.005195873242291006  1.0000
  H   H85       1.0  0.10173526319067165  0.3832860802838586  0.5864625595706485  1.0000
  H   H86       1.0  0.8982647366596662  0.8832860805537288  0.913537440573554  1.0000
  H   H87       1.0  0.8982647368834685  0.6167139196469308  0.41353744043568685  1.0000
  H   H88       1.0  0.10173526341447381  0.11671391937706048  0.08646255943278117  1.0000
  H   H89       1.0  0.9040626192907346  0.30820186664063354  0.5601845341167264  1.0000
  H   H90       1.0  0.09593738055316037  0.8082018663015527  0.9398154653451212  1.0000
  H   H91       1.0  0.0959373807834055  0.691798133899107  0.43981546588960885  1.0000
  H   H92       1.0  0.9040626195209798  0.19179813362923673  0.06018453466121405  1.0000
  H   H93       1.0  0.9423819614696783  0.2947361095613904  0.44242714056744337  1.0000
  H   H94       1.0  0.057618038828263975  0.7947361098312608  0.05757285930102465  1.0000
  H   H95       1.0  0.0576180386044618  0.705263890369399  0.5575728594388919  1.0000
  H   H96       1.0  0.9423819612458763  0.20526389009952867  0.9424271407053106  1.0000
  H   H97       1.0  0.4557502191103975  0.24117122499032276  0.26886297015209437  1.0000
  H   H98       1.0  0.5442497802627126  0.7411712246512419  0.23113702971568387  1.0000
  H   H99       1.0  0.5442497809637427  0.7588287749404665  0.7311370298542409  1.0000
  H   H100      1.0  0.45575021981142744  0.25882877527954756  0.7688629702906514  1.0000
  H   H101      1.0  0.3302350894239261  0.2120260366626866  0.12892389352031494  1.0000
  H   H102      1.0  0.6697649108740161  0.712026036932557  0.3710761063481531  1.0000
  H   H103      1.0  0.669764910650214  0.7879739632681028  0.8710761064860203  1.0000
  H   H104      1.0  0.33023508920012395  0.28797396299823247  0.6289238936581822  1.0000
  H   H105      1.0  0.26355782058266086  0.12665313081256263  0.18352248820521697  1.0000
  H   H106      1.0  0.7364421787904494  0.6266531304734817  0.3164775116625613  1.0000
  H   H107      1.0  0.7364421794914793  0.8733468691182267  0.8164775118011184  1.0000
  H   H108      1.0  0.2635578212836908  0.37334686945730766  0.683522488343774  1.0000
  H   H109      1.0  0.2354942587485974  0.30503622508463496  0.24406138582018294  1.0000
  H   H110      1.0  0.7645057406245128  0.8050362247455539  0.25593861404759527  1.0000
  H   H111      1.0  0.7645057413255427  0.6949637748461545  0.7559386141861524  1.0000
  H   H112      1.0  0.23549425944962735  0.19496377518523536  0.7440613859587399  1.0000
  H   H113      1.0  0.11888304404607138  0.24435261219858156  0.19413236840473624  1.0000
  H   H114      1.0  0.8811169553270387  0.7443526124684519  0.305867631463042  1.0000
  H   H115      1.0  0.8811169560280687  0.7556473877322079  0.805867631601599  1.0000
  H   H116      1.0  0.11888304474710135  0.2556473874623375  0.6941323685432933  1.0000
  H   H117      1.0  0.10014061682588142  0.2518053490518115  0.364908494696534  1.0000
  H   H118      1.0  0.8998593834720608  0.7518053493216819  0.1350915051719339  1.0000
  H   H119      1.0  0.8998593832482586  0.7481946508789777  0.6350915053098012  1.0000
  H   H120      1.0  0.10014061660207925  0.24819465060910753  0.8649084948344014  1.0000
  H   H121      1.0  0.12325172979810843  0.1497830031680039  0.3267416235241665  1.0000
  H   H122      1.0  0.8767482695750018  0.649783002828923  0.1732583763436117  1.0000
  H   H123      1.0  0.8767482702760315  0.8502169967627854  0.6732583764821688  1.0000
  H   H124      1.0  0.1232517304991384  0.3502169971018664  0.8267416236627236  1.0000
  H   H125      1.0  0.24555415666894057  0.17591841344579412  0.4533937801248502  1.0000
  H   H126      1.0  0.7544458427041697  0.6759184131067132  0.04660621974292805  1.0000
  H   H127      1.0  0.7544458434051997  0.8240815864849952  0.5466062198814851  1.0000
  H   H128      1.0  0.24555415644513837  0.3240815868240762  0.9533937802627175  1.0000
  H   H129      1.0  0.3116927013715657  0.2600946393719765  0.4082391716018672  1.0000
  H   H130      1.0  0.6883072980015444  0.7600946390328955  0.09176082826591109  1.0000
  H   H131      1.0  0.6883072987025745  0.7399053605588127  0.5917608284044682  1.0000
  H   H132      1.0  0.3116927020725957  0.23990536089789377  0.9082391717404241  1.0000
  H   H133      1.0  0.3317529774486755  0.08872329225177308  0.3462473312102062  1.0000
  H   H134      1.0  0.6682470219244346  0.5887232925216433  0.15375266865757203  1.0000
  H   H135      1.0  0.6682470226254646  0.9112767076790163  0.653752668796129  1.0000
  H   H136      1.0  0.33175297814970545  0.41127670740914596  0.8462473313487632  1.0000
  H   H137      1.0  0.4484480094162253  0.14699396994332328  0.40199905329234703  1.0000
  H   H138      1.0  0.5515519908817169  0.6469939696042424  0.09800094657612096  1.0000
  H   H139      1.0  0.5515519906579148  0.853006029987466  0.5980009467139882  1.0000
  H   H140      1.0  0.44844800919242317  0.353006030326547  0.9019990534302144  1.0000
  H   H141      1.0  0.5920221067550873  0.11762517898234387  0.26713205372769416  1.0000
  H   H142      1.0  0.4079778926244659  0.6176251792522142  0.232867946822439  1.0000
  H   H143      1.0  0.4079778923942207  0.8823748209484455  0.7328679462779513  1.0000
  H   H144      1.0  0.5920221074496743  0.3823748206785752  0.7671320531838963  1.0000
  H   H145      1.0  0.5427083889994081  0.14373272243340526  0.1554182987798562  1.0000
  H   H146      1.0  0.4572916103737021  0.6437327220943242  0.344581701087922  1.0000
  H   H147      1.0  0.45729161107473215  0.8562672774973841  0.8445817012264791  1.0000
  H   H148      1.0  0.5427083897004379  0.356267277836465  0.6554182989184133  1.0000
  H   H149      1.0  0.4708619014756335  0.060821877092365834  0.21373410622053446  1.0000
  H   H150      1.0  0.5291380988223088  0.5608218773622361  0.2862658936479336  1.0000
  H   H151      1.0  0.5291380985985067  0.9391781228384235  0.7862658937858008  1.0000
  H   H152      1.0  0.4708619012518313  0.4391781225685532  0.7137341063584017  1.0000
  C   C1        1.0  0.9840528081482425  0.15845793804696456  0.5327069451372342  1.0000
  C   C2        1.0  0.015947192626927696  0.6584579377078835  0.9672930550076582  1.0000
  C   C3        1.0  0.015947191925897723  0.8415420618838247  0.4672930548691012  1.0000
  C   C4        1.0  0.9840528074472125  0.34154206222290573  0.03270694499867709  1.0000
  C   C5        1.0  0.06435742433832553  0.08932310983393218  0.5654396697284506  1.0000
  C   C6        1.0  0.9356425755120124  0.5893231101038024  0.9345603304157519  1.0000
  C   C7        1.0  0.9356425757358147  0.910676890096857  0.4345603302778846  1.0000
  C   C8        1.0  0.0643574245621277  0.41067688982698686  0.06543966959058338  1.0000
  C   C9        1.0  0.24050335349734359  0.009320863467054014  0.5239575926674928  1.0000
  C   C10       1.0  0.7594966463529943  0.5093208631279731  0.9760424074767098  1.0000
  C   C11       1.0  0.7594966465767965  0.9906791364637353  0.4760424073388425  1.0000
  C   C12       1.0  0.24050335372114573  0.49067913680281633  0.023957592529625486  1.0000
  C   C13       1.0  0.34064725539637064  0.03530248371766999  0.5905957436538928  1.0000
  C   C14       1.0  0.6593527444539673  0.5353024839875403  0.9094042564903098  1.0000
  C   C15       1.0  0.6593527446777695  0.9646975162131194  0.4094042563524425  1.0000
  C   C16       1.0  0.3406472556201728  0.46469751594324904  0.09059574351602546  1.0000
  C   C17       1.0  0.5102423864122365  0.1263771985632035  0.6050293265955813  1.0000
  C   C18       1.0  0.4897576134316586  0.6263771988330737  0.8949706728662664  1.0000
  C   C19       1.0  0.4897576136619037  0.8736228013675857  0.39497067341075404  1.0000
  C   C20       1.0  0.5102423866424816  0.37362280109771556  0.10502932714006886  1.0000
  C   C21       1.0  0.5901360626859231  0.1834123415878756  0.5505901892651143  1.0000
  C   C22       1.0  0.4098639371579719  0.6834123418577458  0.9494098101967334  1.0000
  C   C23       1.0  0.409863937388217  0.8165876583429137  0.44940981074122105  1.0000
  C   C24       1.0  0.5901360629161682  0.3165876580730435  0.05059018980960185  1.0000
  C   C25       1.0  0.5875543836521085  0.30791358729589496  0.46894031498179417  1.0000
  C   C26       1.0  0.41244561572100163  0.807913586956814  0.031059684885984058  1.0000
  C   C27       1.0  0.4124456164220317  0.6920864126348945  0.531059685024541  1.0000
  C   C28       1.0  0.5875543843531384  0.1920864129739753  0.9689403151203512  1.0000
  C   C29       1.0  0.510334030245968  0.38259584927501916  0.4512392448349228  1.0000
  C   C30       1.0  0.4896659700519742  0.8825958495448895  0.048760755033545246  1.0000
  C   C31       1.0  0.489665969828172  0.6174041506557701  0.5487607551714125  1.0000
  C   C32       1.0  0.5103340300221659  0.11740415038589984  0.95123924497279  1.0000
  C   C33       1.0  0.32842893715911936  0.430976839708712  0.376713644854201  1.0000
  C   C34       1.0  0.6715710631452659  0.9309768399785823  0.12328635569662186  1.0000
  C   C35       1.0  0.6715710629150208  0.5690231602220774  0.6232863551521343  1.0000
  C   C36       1.0  0.32842893692887426  0.06902315995220706  0.8767136443097134  1.0000
  C   C37       1.0  0.23520859882660738  0.4413882855248426  0.45224128763359767  1.0000
  C   C38       1.0  0.7647914005465027  0.9413882857947129  0.047758712234180566  1.0000
  C   C39       1.0  0.7647914012475326  0.5586117144059468  0.5477587123727377  1.0000
  C   C40       1.0  0.23520859952763734  0.05861171413607645  0.9522412877721547  1.0000
  C   C41       1.0  0.060970336133031725  0.37685565503808055  0.5175788005181103  1.0000
  C   C42       1.0  0.9390296637173062  0.8768556553079508  0.9824211996260923  1.0000
  C   C43       1.0  0.9390296639411084  0.6231443448927089  0.482421199488225  1.0000
  C   C44       1.0  0.060970336356833896  0.12314434462283849  0.017578800380243047  1.0000
  C   C45       1.0  0.9815842316102749  0.3016068510084561  0.5119469236225547  1.0000
  C   C46       1.0  0.01841576824006301  0.8016068512783264  0.9880530765216478  1.0000
  C   C47       1.0  0.018415768463865174  0.6983931489223333  0.48805307638378054  1.0000
  C   C48       1.0  0.9815842318340771  0.19839314926141424  0.01194692348468746  1.0000
  C   C49       1.0  0.41352858335167997  0.1804001039839639  0.2595104435463578  1.0000
  C   C50       1.0  0.5864714160214302  0.6804001042538341  0.2404895563214204  1.0000
  C   C51       1.0  0.5864714167224602  0.8195998959468254  0.7404895564599775  1.0000
  C   C52       1.0  0.4135285840527099  0.3195998956769552  0.7595104436849149  1.0000
  C   C53       1.0  0.30145392971002716  0.18826106165432935  0.19553789100153685  1.0000
  C   C54       1.0  0.698546069663083  0.6882610613152483  0.3044621088662414  1.0000
  C   C55       1.0  0.698546070364113  0.8117389388854113  0.8044621090047985  1.0000
  C   C56       1.0  0.3014539304110571  0.311738938615541  0.6955378911400939  1.0000
  C   C57       1.0  0.20179054519390544  0.24187511416656524  0.23782664513815588  1.0000
  C   C58       1.0  0.7982094551104798  0.7418751144364355  0.262173355412667  1.0000
  C   C59       1.0  0.7982094548802348  0.7581248857642241  0.7621733548681794  1.0000
  C   C60       1.0  0.2017905449636603  0.2581248861033051  0.7378266445936683  1.0000
  C   C61       1.0  0.1646908535090928  0.210790052589792  0.33126195669321923  1.0000
  C   C62       1.0  0.8353091467888496  0.7107900528596622  0.16873804317524874  1.0000
  C   C63       1.0  0.8353091465650474  0.7892099473409974  0.6687380433131161  1.0000
  C   C64       1.0  0.16469085328529062  0.28920994707112707  0.8312619568310865  1.0000
  C   C65       1.0  0.3725842981623644  0.14990000645065887  0.35254672759608835  1.0000
  C   C66       1.0  0.6274157021355778  0.6499000067205292  0.14745327227237967  1.0000
  C   C67       1.0  0.6274157019117758  0.8500999934801304  0.647453272410247  1.0000
  C   C68       1.0  0.37258429793856235  0.35009999321026014  0.8525467277339557  1.0000
  C   C69       1.0  0.5106747233332737  0.12225955734594018  0.22203213660841148  1.0000
  C   C70       1.0  0.48932527696466854  0.6222595576158105  0.2779678632600565  1.0000
  C   C71       1.0  0.4893252767408664  0.8777404425848491  0.7779678633979237  1.0000
  C   C72       1.0  0.5106747231094716  0.3777404429239301  0.7220321367462789  1.0000
  N   N1        1.0  0.27504191137895395  0.2028947963496814  0.3933318067701548  1.0000
  N   N2        1.0  0.7249580879941562  0.7028947966195517  0.1066681930976234  1.0000
  N   N3        1.0  0.7249580886951862  0.7971052035811078  0.6066681932361805  1.0000
  N   N4        1.0  0.2750419120799839  0.29710520331123763  0.8933318069087118  1.0000
  O   O1        1.0  0.1584082744251467  0.07427946021908986  0.49879763685940154  1.0000
  O   O2        1.0  0.8415917258727955  0.5742794604889602  0.001202363009066449  1.0000
  O   O3        1.0  0.8415917256489935  0.9257205397116994  0.5012023631469338  1.0000
  O   O4        1.0  0.15840827420134454  0.4257205400507804  0.9987976369972688  1.0000
  O   O5        1.0  0.41945749834084173  0.09152686296945002  0.5459504706619632  1.0000
  O   O6        1.0  0.5805425015030532  0.5915268632393202  0.9540495287998845  1.0000
  O   O7        1.0  0.5805425008084663  0.9084731369613392  0.45404952934368237  1.0000
  O   O8        1.0  0.4194574985710869  0.40847313669146906  0.04595047120645077  1.0000
  O   O9        1.0  0.5178099609751526  0.25148800446430014  0.521699962919489  1.0000
  O   O10       1.0  0.4821900388751852  0.7514880041252192  0.9783000372247136  1.0000
  O   O11       1.0  0.48219003909898733  0.7485119954664892  0.47830003708684626  1.0000
  O   O12       1.0  0.5178099602741228  0.2485119958055702  0.021699962780931944  1.0000
  O   O13       1.0  0.40950878975011656  0.3628001323348272  0.3910477617512871  1.0000
  O   O14       1.0  0.5904912105478257  0.8628001326046975  0.1089522381171809  1.0000
  O   O15       1.0  0.5904912103240236  0.6371998675959621  0.6089522382550483  1.0000
  O   O16       1.0  0.40950878952631437  0.1371998673260918  0.8910477618891545  1.0000
  O   O17       1.0  0.1554872678503997  0.37253076152831727  0.45041756160696594  1.0000
  O   O18       1.0  0.8445127324475427  0.8725307617981876  0.04958243826150207  1.0000
  O   O19       1.0  0.8445127322237403  0.627469238402472  0.5495824383993694  1.0000
  O   O20       1.0  0.15548726762659754  0.1274692381326018  0.9504175617448332  1.0000
  O   O21       1.0  0.05435537893241542  0.2319650282600088  0.5355815522287228  1.0000
  O   O22       1.0  0.9456446209179226  0.7319650279209279  0.9644184479154797  1.0000
  O   O23       1.0  0.9456446211417247  0.7680349716707805  0.4644184477776124  1.0000
  O   O24       1.0  0.05435537915621759  0.2680349720098615  0.035581552090855596  1.0000
  I   I1        1.0  0.822155564635669  0.23741768241901648  0.7605812792335699  1.0000
  I   I2        1.0  0.17784443613305803  0.7374176826888869  0.7394187202289674  1.0000
  I   I3        1.0  0.17784443543847103  0.7625823175117729  0.23941872077276535  1.0000
  I   I4        1.0  0.8221555639410821  0.2625823178508538  0.26058127977736784  1.0000
  I   I5        1.0  0.8792166472057241  0.41100206126480954  0.7447346538017423  1.0000
  I   I6        1.0  0.12078335264461396  0.9110020615346799  0.7552653463424602  1.0000
  I   I7        1.0  0.12078335286841613  0.5889979386659797  0.25526534620459296  1.0000
  I   I8        1.0  0.8792166474295262  0.08899793839610949  0.24473465366387506  1.0000
  I   I9        1.0  0.7863577079947947  0.059446151497446094  0.7761448901441127  1.0000
  I   I10       1.0  0.21364229185554331  0.5594461511583652  0.7238551100000898  1.0000
  I   I11       1.0  0.2136422920793455  0.9405538484333432  0.22385510986222254  1.0000
  I   I12       1.0  0.7863577082185967  0.44055384877242415  0.2761448900062455  1.0000
