data_image0
_chemical_formula_structural       H68C52N8O8S4
_chemical_formula_sum              "H68 C52 N8 O8 S4"
_cell_length_a       5.282492671968477
_cell_length_b       22.07202205281106
_cell_length_c       11.475808966575805
_cell_angle_alpha    90.0
_cell_angle_beta     92.02206384349763
_cell_angle_gamma    90.0

_space_group_name_H-M_alt    "P 1"
_space_group_IT_number       1

loop_
  _space_group_symop_operation_xyz
  'x, y, z'

loop_
  _atom_site_type_symbol
  _atom_site_label
  _atom_site_symmetry_multiplicity
  _atom_site_fract_x
  _atom_site_fract_y
  _atom_site_fract_z
  _atom_site_occupancy
  H   H1        1.0  0.9713322681085209  0.28692807051601454  0.21313497942424722  1.0000
  H   H2        1.0  0.5286677331344023  0.7869280706788664  0.2868650198798075  1.0000
  H   H3        1.0  0.028667733362619515  0.7130719293566269  0.7868650203281111  1.0000
  H   H4        1.0  0.47133226833673814  0.21307192919377504  0.7131349798725508  1.0000
  H   H5        1.0  0.7756892822325924  0.25985550196881624  0.33187010459559635  1.0000
  H   H6        1.0  0.7243107190166592  0.7598555021316681  0.1681298955799546  1.0000
  H   H7        1.0  0.22431071924487647  0.7401444979038252  0.6681298960282581  1.0000
  H   H8        1.0  0.2756892805602666  0.24014449774097335  0.8318701041445491  1.0000
  H   H9        1.0  0.17421248852525292  0.07296625819540115  0.0761818492304894  1.0000
  H   H10       1.0  0.32578751126321  0.5729662579051907  0.4238181506317625  1.0000
  H   H11       1.0  0.8257875110516729  0.9270337421303024  0.9238181504940143  1.0000
  H   H12       1.0  0.6742124883137158  0.42703374196745064  0.5761818490927413  1.0000
  H   H13       1.0  0.5829657035948601  0.08472035890168232  0.7575607988489934  1.0000
  H   H14       1.0  0.9170342957768569  0.5847203590645341  0.7424392016092581  1.0000
  H   H15       1.0  0.4170342959883939  0.9152796409709592  0.24243920174700642  1.0000
  H   H16       1.0  0.0829657038063972  0.41527964126116956  0.25756079898674167  1.0000
  H   H17       1.0  0.854189193220024  0.1649928724829357  0.8397384922306649  1.0000
  H   H18       1.0  0.6458108061516931  0.6649928721927253  0.660261508227587  1.0000
  H   H19       1.0  0.14581080635690194  0.8350071273897057  0.16026150749383888  1.0000
  H   H20       1.0  0.35418919343156097  0.33500712767991614  0.339738492368413  1.0000
  H   H21       1.0  0.048116867415203664  0.009926159890371121  0.9144022025466879  1.0000
  H   H22       1.0  0.4518831323899394  0.509926160053223  0.5855977976261193  1.0000
  H   H23       1.0  0.9518831321680503  0.9900738399822704  0.08559779804931203  1.0000
  H   H24       1.0  0.5481168671869865  0.49007383981941843  0.41440220209838435  1.0000
  H   H25       1.0  0.3076713246649158  0.9838386935298649  0.8336217891175602  1.0000
  H   H26       1.0  0.19232867514022722  0.4838386938200752  0.6663782110552471  1.0000
  H   H27       1.0  0.69232867491201  0.01616130634277658  0.16637821060694355  1.0000
  H   H28       1.0  0.8076713244430268  0.5161613065056284  0.33362178954075283  1.0000
  H   H29       1.0  0.10230793385780743  0.04063438627662001  0.774915265264701  1.0000
  H   H30       1.0  0.39769206784155026  0.5406343859864096  0.7250847349359607  1.0000
  H   H31       1.0  0.8976920676196614  0.9593656140490837  0.22508473535915346  1.0000
  H   H32       1.0  0.6023079336295902  0.4593656138862318  0.2749152648163975  1.0000
  H   H33       1.0  0.9570330466830164  0.2352921235568709  0.025845992979585262  1.0000
  H   H34       1.0  0.5429669526720206  0.7352921237197227  0.4741540071681111  1.0000
  H   H35       1.0  0.0429669528939095  0.7647078763157705  0.9741540067449186  1.0000
  H   H36       1.0  0.4570330469112336  0.2647078761529187  0.5258459934278888  1.0000
  H   H37       1.0  0.3556541762777859  0.36814964032555003  0.8850507277186508  1.0000
  H   H38       1.0  0.14434582542157182  0.8681496400353396  0.614949272482011  1.0000
  H   H39       1.0  0.6443458251933546  0.6318503600001537  0.11494927203370747  1.0000
  H   H40       1.0  0.8556541760495685  0.13185035983730184  0.3850507272703472  1.0000
  H   H41       1.0  0.5882830736009004  0.31445855134582185  0.9236696725404676  1.0000
  H   H42       1.0  0.9117169276650312  0.8144585515086737  0.5763303279456388  1.0000
  H   H43       1.0  0.41171692787024017  0.6855414485268195  0.0763303272118907  1.0000
  H   H44       1.0  0.08828307381243737  0.18554144881702997  0.42366967267821576  1.0000
  H   H45       1.0  0.7006959423936675  0.37149980642374775  0.1064117147548041  1.0000
  H   H46       1.0  0.7993040569613693  0.8714998065865996  0.39358828539289226  1.0000
  H   H47       1.0  0.2993040571832583  0.6285001934488937  0.8935882849696997  1.0000
  H   H48       1.0  0.20069594262188473  0.12850019328604187  0.6064117152031077  1.0000
  H   H49       1.0  0.45193898103819075  0.4229314363525255  0.07738248935304926  1.0000
  H   H50       1.0  0.048061018750272196  0.9229314360623151  0.4226175105092026  1.0000
  H   H51       1.0  0.5480610185387351  0.5770685639731782  0.9226175103714545  1.0000
  H   H52       1.0  0.9519389808266536  0.07706856381032637  0.5773824892153011  1.0000
  H   H53       1.0  0.9032976323434441  0.4034855537336588  0.9195579637985066  1.0000
  H   H54       1.0  0.596702367028273  0.9034855538965108  0.5804420366597453  1.0000
  H   H55       1.0  0.09670236723981002  0.5965144461389826  0.08044203679749336  1.0000
  H   H56       1.0  0.40329763255498113  0.09651444597613076  0.4195579639362546  1.0000
  H   H57       1.0  0.6566392004964149  0.45597597473939744  0.8932980070010118  1.0000
  H   H58       1.0  0.8433607988753021  0.9559759749022493  0.60670199345724  1.0000
  H   H59       1.0  0.3433607990868392  0.544024025133244  0.10670199359498814  1.0000
  H   H60       1.0  0.15663920070795193  0.04402402497039214  0.39329800713875995  1.0000
  H   H61       1.0  0.03002509601111243  0.4564887107258387  0.10372016801709497  1.0000
  H   H62       1.0  0.46997490377735046  0.9564887108886904  0.3962798318451569  1.0000
  H   H63       1.0  0.9699749035658133  0.5435112891468028  0.8962798317074089  1.0000
  H   H64       1.0  0.5300250958059036  0.04351128898395093  0.603720168750843  1.0000
  H   H65       1.0  0.7807199662566154  0.5088737177375883  0.08268804081356528  1.0000
  H   H66       1.0  0.7192800349863081  0.008873718027798702  0.4173119584904895  1.0000
  H   H67       1.0  0.2192800352145252  0.4911262821350531  0.917311958938793  1.0000
  H   H68       1.0  0.2807199645906178  0.9911262818448427  0.5826880412340143  1.0000
  C   C1        1.0  0.7238312829632366  0.2198071589631322  0.17381991089791632  1.0000
  C   C2        1.0  0.7761687182860147  0.7198071586729218  0.3261800892776346  1.0000
  C   C3        1.0  0.2761687185079038  0.7801928413625715  0.826180088854442  1.0000
  C   C4        1.0  0.22383128319145384  0.28019284119971966  0.6738199113462199  1.0000
  C   C5        1.0  0.47846335556748176  0.1381770842156066  0.0716561299094951  1.0000
  C   C6        1.0  0.021536644227309453  0.6381770839253962  0.42834387082425296  1.0000
  C   C7        1.0  0.5215366440157724  0.8618229161100972  0.9283438706865048  1.0000
  C   C8        1.0  0.9784633553559445  0.36182291594724525  0.571656129771747  1.0000
  C   C9        1.0  0.32378487871872064  0.09243730253251324  0.025064259123590518  1.0000
  C   C10       1.0  0.17621512106974233  0.5924373022423028  0.4749357407386614  1.0000
  C   C11       1.0  0.6762151208645335  0.9075626977931904  0.9749357414724094  1.0000
  C   C12       1.0  0.8237848785071835  0.4075626976303386  0.5250642589858424  1.0000
  C   C13       1.0  0.3612331104393066  0.07243312987703299  0.9109222180458332  1.0000
  C   C14       1.0  0.13876688936583642  0.5724331300398848  0.5890777821269741  1.0000
  C   C15       1.0  0.6387668891439474  0.9275668699956084  0.08907778255016681  1.0000
  C   C16       1.0  0.8612331102110893  0.42756686983275655  0.4109222175975296  1.0000
  C   C17       1.0  0.5545962880224039  0.09899295971941659  0.8469664987270957  1.0000
  C   C18       1.0  0.9454037113429848  0.5989929598822684  0.6530335008596599  1.0000
  C   C19       1.0  0.44540371155452196  0.9010070401532249  0.15303350099740803  1.0000
  C   C20       1.0  0.05459628823394095  0.40100704044343527  0.3469664988648438  1.0000
  C   C21       1.0  0.7096699228130205  0.1447337317965911  0.892629363461726  1.0000
  C   C22       1.0  0.7903300765586966  0.644733731959443  0.6073706369965258  1.0000
  C   C23       1.0  0.2903300767702336  0.8552662680760503  0.10737063713427392  1.0000
  C   C24       1.0  0.20966992301822937  0.3552662679131985  0.39262936272797794  1.0000
  C   C25       1.0  0.6694587457600626  0.1645317004174292  0.005863452906619916  1.0000
  C   C26       1.0  0.8305412554891889  0.664531700580281  0.494136547268931  1.0000
  C   C27       1.0  0.3305412557174061  0.8354682994552122  0.9941365477172346  1.0000
  C   C28       1.0  0.1694587440877369  0.3354682992923604  0.5058634524555727  1.0000
  C   C29       1.0  0.19618543323976995  0.0240721905192339  0.8558000035308398  1.0000
  C   C30       1.0  0.3038145665653731  0.5240721906820858  0.6441999966419676  1.0000
  C   C31       1.0  0.8038145663371559  0.9759278093534076  0.14419999619366397  1.0000
  C   C32       1.0  0.6961854349057673  0.4759278091905557  0.3558000031103908  1.0000
  C   C33       1.0  0.2555127185248324  0.3100512292723279  0.022848542067407166  1.0000
  C   C34       1.0  0.2444872812636305  0.8100512289821175  0.4771514577948447  1.0000
  C   C35       1.0  0.7444872810520934  0.6899487710533758  0.9771514576570964  1.0000
  C   C36       1.0  0.7555127183132954  0.18994877089052395  0.522848541929659  1.0000
  C   C37       1.0  0.45373997556829077  0.3466139491748853  0.960913518984328  1.0000
  C   C38       1.0  0.04626002423685227  0.846613949337737  0.5390864811884793  1.0000
  C   C39       1.0  0.546260024008635  0.6533860506977562  0.03908648074017579  1.0000
  C   C40       1.0  0.9537399753400736  0.15338605098796657  0.4609135185360244  1.0000
  C   C41       1.0  0.5918456077429038  0.3940358114535474  0.035262056115891977  1.0000
  C   C42       1.0  0.9081543916121331  0.8940358116163993  0.4647379440318044  1.0000
  C   C43       1.0  0.4081543918403502  0.605964188419094  0.964737944480108  1.0000
  C   C44       1.0  0.09184560796479281  0.10596418870930442  0.5352620556926992  1.0000
  C   C45       1.0  0.7678419952812021  0.43293100546639784  0.9636946558152841  1.0000
  C   C46       1.0  0.7321580040841867  0.9329310051761874  0.5363053437714714  1.0000
  C   C47       1.0  0.23215800429572386  0.5670689948593057  0.03630534390921954  1.0000
  C   C48       1.0  0.26784199549273907  0.06706899469645397  0.4636946559530323  1.0000
  C   C49       1.0  0.9144942941210362  0.48007212681497335  0.035978447103270535  1.0000
  C   C50       1.0  0.5855057071282154  0.9800721269778253  0.4640215530722804  1.0000
  C   C51       1.0  0.08550570735010432  0.5199278730576681  0.9640215526490877  1.0000
  C   C52       1.0  0.4144942924487105  0.019927872894816248  0.5359784466522234  1.0000
  N   N1        1.0  0.8008855154193342  0.20976272807820726  0.0656191077457242  1.0000
  N   N2        1.0  0.6991144839293746  0.7097627277879969  0.434380891530476  1.0000
  N   N3        1.0  0.19911448415759175  0.7902372717944343  0.9343808919787794  1.0000
  N   N4        1.0  0.3008855156475513  0.2902372720846446  0.5656191081940277  1.0000
  N   N5        1.0  0.8235478846765563  0.2611630491401151  0.2448724924651834  1.0000
  N   N6        1.0  0.6764521146721525  0.7611630488499047  0.2551275068110168  1.0000
  N   N7        1.0  0.17645211490036974  0.7388369511855885  0.7551275072593203  1.0000
  N   N8        1.0  0.32354788490477326  0.23883695102273672  0.7448724929134869  1.0000
  O   O1        1.0  0.15234322967592737  0.26615564745015374  0.962629485840392  1.0000
  O   O2        1.0  0.34765677012921564  0.7661556476130056  0.5373705143324153  1.0000
  O   O3        1.0  0.8476567699073266  0.7338443524224876  0.03737051475560798  1.0000
  O   O4        1.0  0.6523432294477102  0.23384435225963585  0.46262948539208837  1.0000
  O   O5        1.0  0.19781586740570267  0.32320432096938095  0.12492479277550302  1.0000
  O   O6        1.0  0.30218413238276026  0.8232043211322329  0.3750752070867488  1.0000
  O   O7        1.0  0.8021841321712232  0.6767956789032605  0.8750752069490008  1.0000
  O   O8        1.0  0.6978158671941657  0.17679567874040866  0.6249247926377549  1.0000
  S   S1        1.0  0.47267150877568487  0.17208004191515713  0.2098520201950531  1.0000
  S   S2        1.0  0.027328491012778084  0.672080042078009  0.2901479796671988  1.0000
  S   S3        1.0  0.5273284926954557  0.8279199579574843  0.7901479795573052  1.0000
  S   S4        1.0  0.9726715085641479  0.32791995779463246  0.709852020057305  1.0000
