data_image0
_chemical_formula_structural       H80C112N4O4
_chemical_formula_sum              "H80 C112 N4 O4"
_cell_length_a       11.150174662423787
_cell_length_b       15.420244388905363
_cell_length_c       12.169851655893977
_cell_angle_alpha    90.0
_cell_angle_beta     108.42294569803325
_cell_angle_gamma    90.0

_space_group_name_H-M_alt    "P 1"
_space_group_IT_number       1

loop_
  _space_group_symop_operation_xyz
  'x, y, z'

loop_
  _atom_site_type_symbol
  _atom_site_label
  _atom_site_symmetry_multiplicity
  _atom_site_fract_x
  _atom_site_fract_y
  _atom_site_fract_z
  _atom_site_occupancy
  H   H1        1.0  0.8941848665199859  0.3879078112603518  0.28100571019907195  1.0000
  H   H2        1.0  0.605815133340048  0.8879078109715962  0.21899428922889483  1.0000
  H   H3        1.0  0.10581513336523339  0.6120921888106353  0.7189942895407265  1.0000
  H   H4        1.0  0.3941848665451714  0.11209218909939082  0.7810057105109037  1.0000
  H   H5        1.0  0.9596538553780208  0.5509053349447623  0.2740118440308069  1.0000
  H   H6        1.0  0.5403461444820132  0.05090533523351785  0.22598815539715986  1.0000
  H   H7        1.0  0.04034614450719858  0.44909466512622476  0.7259881557089917  1.0000
  H   H8        1.0  0.45965385540320614  0.9490946648374693  0.7740118443426387  1.0000
  H   H9        1.0  0.9945931921713665  0.7100274693361862  0.29416437223445724  1.0000
  H   H10       1.0  0.505406807984657  0.2100274696249418  0.2058356280595957  1.0000
  H   H11       1.0  0.005406807713852706  0.28997253073480084  0.7058356275053415  1.0000
  H   H12       1.0  0.49459319309431055  0.7899725304460453  0.7941643725489438  1.0000
  H   H13       1.0  0.9192590234409963  0.794231251536565  0.43207740223327284  1.0000
  H   H14       1.0  0.5807409764190378  0.29423125182532056  0.06792259719469386  1.0000
  H   H15       1.0  0.08074097644422315  0.20576874853442204  0.5679225975065257  1.0000
  H   H16       1.0  0.41925902346618166  0.7057687482456666  0.9320774025451047  1.0000
  H   H17       1.0  0.8033015500234172  0.7202404339318259  0.5516545874321414  1.0000
  H   H18       1.0  0.6966984498044118  0.22024043422058134  0.9483454121775564  1.0000
  H   H19       1.0  0.19669844986180213  0.27975956613916125  0.4483454123076572  1.0000
  H   H20       1.0  0.30330155008080756  0.7797595658504057  0.05165458756224217  1.0000
  H   H21       1.0  0.6575373425546495  0.3630232769869466  0.56748761071601  1.0000
  H   H22       1.0  0.8424626572731795  0.863023276698191  0.9325123888936878  1.0000
  H   H23       1.0  0.3424626573305698  0.6369767230840405  0.4325123890237885  1.0000
  H   H24       1.0  0.15753734261203983  0.13697672337279604  0.0674876108461107  1.0000
  H   H25       1.0  0.691544704125216  0.23233421401399215  0.4591712272995515  1.0000
  H   H26       1.0  0.8084552960308078  0.7323342143737347  0.04082877299450146  1.0000
  H   H27       1.0  0.30845529576000336  0.7676657860569949  0.5408287724402471  1.0000
  H   H28       1.0  0.1915447041504014  0.2676657856972523  0.9591712276113833  1.0000
  H   H29       1.0  0.808154981385829  0.2454025205153462  0.316726081650775  1.0000
  H   H30       1.0  0.691845018474205  0.7454025208750888  0.1832739177771918  1.0000
  H   H31       1.0  0.19184501849939045  0.7545974795556408  0.6832739180890235  1.0000
  H   H32       1.0  0.30815498141101433  0.2545974791958983  0.8167260819626069  1.0000
  H   H33       1.0  0.8565846755420633  0.2178180711854744  0.8527423478373298  1.0000
  H   H34       1.0  0.6434153245817555  0.717818071545217  0.6472576526384543  1.0000
  H   H35       1.0  0.14341532463914586  0.7821819288855126  0.147257652768555  1.0000
  H   H36       1.0  0.3565846753034638  0.2821819285257701  0.3527423471013443  1.0000
  H   H37       1.0  0.8354426900708998  0.3667743770694859  0.7674809365055936  1.0000
  H   H38       1.0  0.6645573100529192  0.8667743774292285  0.7325190639701905  1.0000
  H   H39       1.0  0.16455730981431965  0.6332256230015011  0.23251906323420496  1.0000
  H   H40       1.0  0.33544269012829  0.13322562264175852  0.26748093663569433  1.0000
  H   H41       1.0  0.9288881305287152  0.6794622027870315  0.8138751034347494  1.0000
  H   H42       1.0  0.5711118695951036  0.17946220307578706  0.6861248970410346  1.0000
  H   H43       1.0  0.07111186965249396  0.3205377972839556  0.18612489717113534  1.0000
  H   H44       1.0  0.4288881305861055  0.8205377969952  0.3138751035648501  1.0000
  H   H45       1.0  0.035179690523100576  0.804231189028538  0.940124270107366  1.0000
  H   H46       1.0  0.4648203093873042  0.30423118866879534  0.5598757299442644  1.0000
  H   H47       1.0  0.9648203093621187  0.1957688110424491  0.05987572963243255  1.0000
  H   H48       1.0  0.5351796904979151  0.6957688114021917  0.4401242697955342  1.0000
  H   H49       1.0  0.5672926436324559  0.5487579811697583  0.4286516771422251  1.0000
  H   H50       1.0  0.932707356227578  0.04875798081001571  0.07134832228574169  1.0000
  H   H51       1.0  0.43270735625276346  0.4512420189012288  0.5713483225975735  1.0000
  H   H52       1.0  0.06729264365764139  0.9512420192609714  0.928651677454057  1.0000
  H   H53       1.0  0.46364250970500903  0.6584000249246834  0.23469597388665855  1.0000
  H   H54       1.0  0.03635749023760065  0.1584000245649408  0.2653040259832407  1.0000
  H   H55       1.0  0.5363574904762001  0.34159997514630364  0.7653040267192261  1.0000
  H   H56       1.0  0.9636425096476187  0.8415999748575481  0.7346959737565578  1.0000
  H   H57       1.0  0.3412261250292419  0.624739040902053  0.029166162958129866  1.0000
  H   H58       1.0  0.15877387491336778  0.12473904119080853  0.4708338369117694  1.0000
  H   H59       1.0  0.6587738751519672  0.37526095916893404  0.9708338376477549  1.0000
  H   H60       1.0  0.8412261249718516  0.8752609588801785  0.5291661628280292  1.0000
  H   H61       1.0  0.4012578020625714  0.35364450409901144  0.11373706817763998  1.0000
  H   H62       1.0  0.09874219788003832  0.8536445044587541  0.3862629316922593  1.0000
  H   H63       1.0  0.5987421981186377  0.6463554953234776  0.8862629324282447  1.0000
  H   H64       1.0  0.901257802005181  0.14635549561223304  0.6137370680475392  1.0000
  H   H65       1.0  0.5160771460206782  0.39830154666154394  0.31803853363923024  1.0000
  H   H66       1.0  0.9839228538393558  0.8983015470212865  0.18196146578873656  1.0000
  H   H67       1.0  0.4839228538645411  0.6016984534094431  0.6819614661005683  1.0000
  H   H68       1.0  0.01607714604586357  0.10169845304970053  0.8180385339510619  1.0000
  H   H69       1.0  0.1880376857974796  0.47083065980612443  0.9163477521034261  1.0000
  H   H70       1.0  0.3119623141129252  0.9708306601658672  0.5836522479482043  1.0000
  H   H71       1.0  0.8119623143837296  0.5291693402648626  0.08365224850245866  1.0000
  H   H72       1.0  0.6880376857722942  0.029169339905120006  0.41634775179159433  1.0000
  H   H73       1.0  0.30700817298988536  0.39664937116046495  0.9096404743853539  1.0000
  H   H74       1.0  0.19299182692051942  0.8966493708717094  0.5903595256662765  1.0000
  H   H75       1.0  0.6929918271913238  0.603350628910522  0.09035952622053083  1.0000
  H   H76       1.0  0.8070081729647  0.10335062919927765  0.4096404740735221  1.0000
  H   H77       1.0  0.3140039596017949  0.5071119933498736  0.8693375544737257  1.0000
  H   H78       1.0  0.1859960403086098  0.007111992990130882  0.6306624455779044  1.0000
  H   H79       1.0  0.6859960405794142  0.4928880067211136  0.13066244613215885  1.0000
  H   H80       1.0  0.8140039595766094  0.9928880070808561  0.369337554161894  1.0000
  C   C1        1.0  0.8417181246234123  0.38279968145297516  0.34264173404054754  1.0000
  C   C2        1.0  0.6582818755326113  0.8827996811642197  0.15735826625350538  1.0000
  C   C3        1.0  0.15828187555779671  0.617200318618012  0.6573582665653371  1.0000
  C   C4        1.0  0.34171812435260807  0.11720031890676746  0.8426417334862932  1.0000
  C   C5        1.0  0.8215520180215802  0.45560302112038836  0.4027957280266818  1.0000
  C   C6        1.0  0.6784479818384537  0.9556030214801311  0.09720427140128499  1.0000
  C   C7        1.0  0.17844798276139764  0.5443969789505987  0.5972042717157716  1.0000
  C   C8        1.0  0.3215520180467656  0.04439697859085608  0.9027957283385136  1.0000
  C   C9        1.0  0.8576878373757957  0.5467385572738307  0.3984150228383731  1.0000
  C   C10       1.0  0.6423121627802278  0.04673855756258619  0.10158497745567988  1.0000
  C   C11       1.0  0.14231216250942358  0.45326144214865827  0.6015849769014255  1.0000
  C   C12       1.0  0.35768783710499147  0.953261442508401  0.8984150222841186  1.0000
  C   C13       1.0  0.9235165696709958  0.5877997307566296  0.33283486951000407  1.0000
  C   C14       1.0  0.5764834304850278  0.08779973039688697  0.16716513078404888  1.0000
  C   C15       1.0  0.07648343051021321  0.41220026931435744  0.6671651310958806  1.0000
  C   C16       1.0  0.42351656940019156  0.9122002696741001  0.8328348689557498  1.0000
  C   C17       1.0  0.9442460428425465  0.6770940081541194  0.3455442791954057  1.0000
  C   C18       1.0  0.5557539573134771  0.17709400844287487  0.15445572109864722  1.0000
  C   C19       1.0  0.05575395733866256  0.32290599191686775  0.6544557214104789  1.0000
  C   C20       1.0  0.44424604257174216  0.8229059916281122  0.8455442786411513  1.0000
  C   C21       1.0  0.9013532350407434  0.7246554528046124  0.42348262394485214  1.0000
  C   C22       1.0  0.5986467648192906  0.22465545244486987  0.07651737548311469  1.0000
  C   C23       1.0  0.098646764844476  0.2753445472663746  0.5765173757949464  1.0000
  C   C24       1.0  0.4013532350659287  0.7753445476261172  0.9234826242566838  1.0000
  C   C25       1.0  0.8364134294839224  0.6835783580436673  0.4903098569466118  1.0000
  C   C26       1.0  0.6635865706721013  0.1835783576839246  0.009690143347441142  1.0000
  C   C27       1.0  0.16358657069728663  0.31642164202731987  0.5096901436592729  1.0000
  C   C28       1.0  0.3364134292131181  0.8164216423870624  0.9903098563923574  1.0000
  C   C29       1.0  0.8141258540722696  0.5950633231599113  0.47630135272528346  1.0000
  C   C30       1.0  0.6858741460837543  0.09506332344866682  0.023698647568769486  1.0000
  C   C31       1.0  0.18587414610893968  0.4049366769110758  0.5236986478806013  1.0000
  C   C32       1.0  0.3141258538014651  0.9049366766223204  0.9763013521710291  1.0000
  C   C33       1.0  0.7415016774319506  0.5363866675129362  0.5355443193583113  1.0000
  C   C34       1.0  0.758498322691868  0.03638666780169171  0.9644556811174726  1.0000
  C   C35       1.0  0.2584983224532687  0.4636133325580509  0.46445568038148727  1.0000
  C   C36       1.0  0.24150167748934095  0.9636133322692954  0.035544319488411996  1.0000
  C   C37       1.0  0.75515714647268  0.4475403933912551  0.48327979642169766  1.0000
  C   C38       1.0  0.7448428536833438  0.9475403931024996  0.01672020387235533  1.0000
  C   C39       1.0  0.24484285370852915  0.5524596066797319  0.5167202041841871  1.0000
  C   C40       1.0  0.2551571462018756  0.052459606968487504  0.9832797958674432  1.0000
  C   C41       1.0  0.7093465646897983  0.3680455761183223  0.5053767251427541  1.0000
  C   C42       1.0  0.7906534354340206  0.8680455764780649  0.99462327533303  1.0000
  C   C43       1.0  0.29065343549141087  0.6319544239526649  0.4946232754631306  1.0000
  C   C44       1.0  0.20934656474718855  0.13195442359292223  0.005376725272854824  1.0000
  C   C45       1.0  0.7288320966988424  0.29509676988478806  0.4443502948160655  1.0000
  C   C46       1.0  0.7711679025594227  0.7950967695960326  0.0556497054753326  1.0000
  C   C47       1.0  0.2711679031863768  0.704903230186199  0.555649704923733  1.0000
  C   C48       1.0  0.22883209762178638  0.20490323047495454  0.944350295130552  1.0000
  C   C49       1.0  0.7943571316373473  0.30267963154709276  0.3638787166405832  1.0000
  C   C50       1.0  0.7056428685186763  0.8026796312583372  0.13612128365346973  1.0000
  C   C51       1.0  0.205642868247872  0.6973203685238942  0.6361212830992153  1.0000
  C   C52       1.0  0.29435713166253274  0.19732036881264983  0.863878716952415  1.0000
  C   C53       1.0  0.803114536412839  0.5340873531113103  0.6605720955079113  1.0000
  C   C54       1.0  0.6968854634149899  0.034087352751567726  0.8394279041017865  1.0000
  C   C55       1.0  0.19688546347238034  0.4659126469596767  0.33942790423188723  1.0000
  C   C56       1.0  0.3031145364702293  0.9659126473194194  0.160572095638012  1.0000
  C   C57       1.0  0.8601748432640857  0.5269310333269497  0.7635318643780502  1.0000
  C   C58       1.0  0.6398251565637434  0.02693103296720706  0.7364681352316476  1.0000
  C   C59       1.0  0.1398251566211337  0.4730689667440374  0.2364681353617483  1.0000
  C   C60       1.0  0.360174843321476  0.973068966455282  0.26353186450815097  1.0000
  C   C61       1.0  0.897658077845197  0.2739643376235681  0.9059321457515702  1.0000
  C   C62       1.0  0.6023419228803903  0.7739643379833107  0.5940678538607824  1.0000
  C   C63       1.0  0.10234192293778066  0.7260356617989209  0.09406785399088316  1.0000
  C   C64       1.0  0.3976580779025874  0.22603566208767636  0.4059321458816709  1.0000
  C   C65       1.0  0.8865693652325485  0.3556953334634768  0.8587908439852829  1.0000
  C   C66       1.0  0.6134306348912704  0.8556953338232194  0.641209156490501  1.0000
  C   C67       1.0  0.11343063494866065  0.6443046666075102  0.14120915662060177  1.0000
  C   C68       1.0  0.3865693652899388  0.14430466624776767  0.3587908441153837  1.0000
  C   C69       1.0  0.9417424453750582  0.4285804986823001  0.9282082494701348  1.0000
  C   C70       1.0  0.5582575544527708  0.9285804990420428  0.571791750139563  1.0000
  C   C71       1.0  0.058257554510161146  0.5714195007401888  0.07179175026966371  1.0000
  C   C72       1.0  0.44174244543244856  0.07141950102894436  0.4282082496002356  1.0000
  C   C73       1.0  0.9293016290815206  0.5138338511483515  0.8812628684191157  1.0000
  C   C74       1.0  0.5706983710422984  0.013833850788608873  0.6187371320566684  1.0000
  C   C75       1.0  0.07069837109968859  0.4861661489226356  0.11873713218676901  1.0000
  C   C76       1.0  0.4293016291389108  0.9861661486338801  0.38126286854921637  1.0000
  C   C77       1.0  0.9880697094934251  0.5851197291329372  0.9517861692585375  1.0000
  C   C78       1.0  0.511930290334404  0.08511972942169274  0.5482138303511603  1.0000
  C   C79       1.0  0.01193029039179431  0.4148802709380499  0.048213830481260996  1.0000
  C   C80       1.0  0.48806970955081536  0.9148802706492943  0.45178616938863825  1.0000
  C   C81       1.0  0.9806698470020531  0.6704534849939497  0.9055831462027535  1.0000
  C   C82       1.0  0.5193301531217657  0.1704534846342072  0.5944168542730305  1.0000
  C   C83       1.0  0.019330153179155977  0.32954651507703725  0.0944168544031312  1.0000
  C   C84       1.0  0.48066984676345365  0.8295465154367798  0.40558314546676805  1.0000
  C   C85       1.0  0.03754913745825595  0.7389317044934891  0.9745326180051409  1.0000
  C   C86       1.0  0.46245086245214884  0.23893170413374645  0.5254673820464894  1.0000
  C   C87       1.0  0.9624508624269633  0.261068295577498  0.025467381734657533  1.0000
  C   C88       1.0  0.5375491377290602  0.7610682959372407  0.4745326185593954  1.0000
  C   C89       1.0  0.4474044816878359  0.5912310032232364  0.20486526509661537  1.0000
  C   C90       1.0  0.05259551855076353  0.09123100286349385  0.29513473563937004  1.0000
  C   C91       1.0  0.5525955184933732  0.40876899684775064  0.7951347355092693  1.0000
  C   C92       1.0  0.9474044816304455  0.9087689965589951  0.7048652649665147  1.0000
  C   C93       1.0  0.38060100760436144  0.572502314966662  0.09010295161672024  1.0000
  C   C94       1.0  0.11939899233824824  0.07250231460691939  0.4098970482531791  1.0000
  C   C95       1.0  0.6193989925768477  0.42749768510432506  0.9098970489891646  1.0000
  C   C96       1.0  0.880601007546971  0.9274976854640677  0.5901029514866195  1.0000
  C   C97       1.0  0.36260425951104835  0.485968600172877  0.05337186674649932  1.0000
  C   C98       1.0  0.1373957404315613  0.9859685998841216  0.4466281331234  1.0000
  C   C99       1.0  0.637395740374171  0.5140313998981101  0.9466281329932993  1.0000
  C   C100      1.0  0.862604259453658  0.014031400186865606  0.5533718666163986  1.0000
  C   C101      1.0  0.4130599349912221  0.4221632527875984  0.1371138487118734  1.0000
  C   C102      1.0  0.08694006495138752  0.9221632524988429  0.36288615115802586  1.0000
  C   C103      1.0  0.586940065189987  0.5778367472833886  0.8628861518940114  1.0000
  C   C104      1.0  0.9130599349338318  0.07783674757214422  0.6371138485817727  1.0000
  C   C105      1.0  0.4771655315137105  0.4465361278550265  0.2507028887288319  1.0000
  C   C106      1.0  0.022834468428899253  0.9465361275662709  0.2492971111410674  1.0000
  C   C107      1.0  0.5228344686674987  0.5534638722159606  0.749297111877053  1.0000
  C   C108      1.0  0.97716553145632  0.05346387250471609  0.7507028885987311  1.0000
  C   C109      1.0  0.2899496576961482  0.4636544006490635  0.9306446053013112  1.0000
  C   C110      1.0  0.21005034221425653  0.9636544003603079  0.5693553947503192  1.0000
  C   C111      1.0  0.7100503421890711  0.5363455994219235  0.06935539443848733  1.0000
  C   C112      1.0  0.7899496576709628  0.03634559971067912  0.4306446049894795  1.0000
  N   N1        1.0  0.4952319726329821  0.5296920537703502  0.2847673747915738  1.0000
  N   N2        1.0  0.004768027309627616  0.02969205341060759  0.21523262507832544  1.0000
  N   N3        1.0  0.5047680272522374  0.4703079463006369  0.7152326249482248  1.0000
  N   N4        1.0  0.9952319725755917  0.9703079466603795  0.7847673746614731  1.0000
  O   O1        1.0  0.6131501522083315  0.5618112191680368  0.5134948607746845  1.0000
  O   O2        1.0  0.8868498476194975  0.06181121880829419  0.9865051388350132  1.0000
  O   O3        1.0  0.3868498476768878  0.43818878090295027  0.486505138965114  1.0000
  O   O4        1.0  0.11315015226572189  0.9381887812626929  0.013494860904785341  1.0000
