data_image0
_chemical_formula_structural       H40C56N2O2
_chemical_formula_sum              "H40 C56 N2 O2"
_cell_length_a       9.32556188660946
_cell_length_b       11.104861945342524
_cell_length_c       11.384703389739476
_cell_angle_alpha    113.7914192054356
_cell_angle_beta     105.7962859980481
_cell_angle_gamma    100.9673714778654

_space_group_name_H-M_alt    "P 1"
_space_group_IT_number       1

loop_
  _space_group_symop_operation_xyz
  'x, y, z'

loop_
  _atom_site_type_symbol
  _atom_site_label
  _atom_site_symmetry_multiplicity
  _atom_site_fract_x
  _atom_site_fract_y
  _atom_site_fract_z
  _atom_site_occupancy
  H   H1        1.0  0.6169382941617898  0.6334837193830826  0.8019179955124  1.0000
  H   H2        1.0  0.38306170576581866  0.36651627991583713  0.1980820042815812  1.0000
  H   H3        1.0  0.7831653131065148  0.6924238740108849  0.6679919706004752  1.0000
  H   H4        1.0  0.2168346868210937  0.30757612528803463  0.33200802919350597  1.0000
  H   H5        1.0  0.9191284867527175  0.6944078660929532  0.5089230541691605  1.0000
  H   H6        1.0  0.08087151339438707  0.3055921341227761  0.491076945624012  1.0000
  H   H7        1.0  0.8933766023726818  0.47299259755125533  0.31365692944567247  1.0000
  H   H8        1.0  0.10662339777442277  0.5270074026644741  0.6863430703475001  1.0000
  H   H9        1.0  0.7299062178242691  0.24273908349312223  0.2741003262168239  1.0000
  H   H10       1.0  0.27009378232283543  0.7572609167226072  0.7258996735763487  1.0000
  H   H11       1.0  0.3801664488120075  0.11101965015405751  0.5788648128923992  1.0000
  H   H12       1.0  0.619833551335097  0.8889803500616719  0.42113518690077323  1.0000
  H   H13       1.0  0.3380967972873208  0.2661833100717447  0.7882777175202205  1.0000
  H   H14       1.0  0.6619032028597839  0.7338166901439845  0.21172228227295214  1.0000
  H   H15       1.0  0.4550109772699808  0.5247963384779237  0.8976377782520604  1.0000
  H   H16       1.0  0.5449890228771238  0.4752036617378056  0.10236222154111216  1.0000
  H   H17       1.0  0.872308913996531  0.029982428536697966  0.3881878605677113  1.0000
  H   H18       1.0  0.1276910859310773  0.9700175707622217  0.6118121392262698  1.0000
  H   H19       1.0  0.12268287867036907  0.07343313608958082  0.34927639266546145  1.0000
  H   H20       1.0  0.8773171204059372  0.926566864135497  0.6507236071257115  1.0000
  H   H21       1.0  0.39857239321403237  0.09489717712949325  0.039870899333092735  1.0000
  H   H22       1.0  0.6014276069330722  0.9051028230862362  0.9601291004600798  1.0000
  H   H23       1.0  0.3862736921390484  0.051540468192509306  0.8038960254926745  1.0000
  H   H24       1.0  0.6137263077885602  0.9484595311064103  0.19610397430130663  1.0000
  H   H25       1.0  0.7330523820811674  0.16523317256260123  0.5494224990148734  1.0000
  H   H26       1.0  0.26694761806593703  0.8347668276531282  0.4505775007782991  1.0000
  H   H27       1.0  0.6634348150912235  0.16245519982115483  0.7432959965376232  1.0000
  H   H28       1.0  0.33656518551447817  0.8375448008997227  0.25670400429731416  1.0000
  H   H29       1.0  0.09485983731283974  0.39312296318912826  0.11142838730789104  1.0000
  H   H30       1.0  0.9051401628342649  0.6068770370266011  0.8885716124852815  1.0000
  H   H31       1.0  0.23566052643514818  0.4168415176025135  0.9602150143828573  1.0000
  H   H32       1.0  0.7643394737119563  0.5831584826132159  0.03978498541031518  1.0000
  H   H33       1.0  0.07879670524220643  0.3136253521665244  0.7037683400736393  1.0000
  H   H34       1.0  0.9212032949048982  0.686374648049205  0.29623165971953325  1.0000
  H   H35       1.0  0.8448442065447609  0.25483629068591884  0.11437994785536644  1.0000
  H   H36       1.0  0.1551557933828476  0.7451637086130009  0.8856200519386147  1.0000
  H   H37       1.0  0.6675639824840652  0.16598084531375712  0.9614779689159967  1.0000
  H   H38       1.0  0.3324360176630395  0.8340191549019722  0.038522030877175865  1.0000
  H   H39       1.0  0.7326347770873287  0.35064497191796745  0.06399799707299145  1.0000
  H   H40       1.0  0.2673652230597758  0.6493550282977619  0.9360020027201811  1.0000
  C   C1        1.0  0.5672241107401234  0.5198484661673232  0.7542490836854426  1.0000
  C   C2        1.0  0.43277588940698125  0.48015153404840616  0.2457509161077299  1.0000
  C   C3        1.0  0.591429089684114  0.43285991613755215  0.6380003618690646  1.0000
  C   C4        1.0  0.4085709107020915  0.5671400836665156  0.36199963896668147  1.0000
  C   C5        1.0  0.6824197113101903  0.4661674919204056  0.5617497212785411  1.0000
  C   C6        1.0  0.31758028907601527  0.5338325078836622  0.438250279557205  1.0000
  C   C7        1.0  0.7724708311667831  0.5945068533282039  0.5831846458845614  1.0000
  C   C8        1.0  0.2275291687608255  0.40549314597071584  0.41681535390941976  1.0000
  C   C9        1.0  0.8466616555919658  0.5949590085927916  0.49203249822048034  1.0000
  C   C10       1.0  0.15333834433564278  0.40504099070612815  0.5079675015735009  1.0000
  C   C11       1.0  0.8315631660806749  0.4698492616674682  0.3815264256975884  1.0000
  C   C12       1.0  0.16843683452502672  0.5301507390534094  0.6184735751373491  1.0000
  C   C13       1.0  0.741489905606239  0.34094136275122205  0.3594939428779924  1.0000
  C   C14       1.0  0.25851009499946265  0.6590586379696555  0.640506057956945  1.0000
  C   C15       1.0  0.6684407591692564  0.34062184711263205  0.45059081388006633  1.0000
  C   C16       1.0  0.3315592409778482  0.6593781531030973  0.5494091859131062  1.0000
  C   C17       1.0  0.5643956001195145  0.21395292025803334  0.4483770787301844  1.0000
  C   C18       1.0  0.4356043989567917  0.7860470799670445  0.5516229210609885  1.0000
  C   C19       1.0  0.5219705389179997  0.2863359888111885  0.5748683783882498  1.0000
  C   C20       1.0  0.4780294610096087  0.7136640104877311  0.4251316214057313  1.0000
  C   C21       1.0  0.4301075417108915  0.22473084445216548  0.6266711466823035  1.0000
  C   C22       1.0  0.5698924586753139  0.7752691553519022  0.3733288541534425  1.0000
  C   C23       1.0  0.40846803238855794  0.31240279233429535  0.7449618379682444  1.0000
  C   C24       1.0  0.5915319682171438  0.6875972083865821  0.25503816286669295  1.0000
  C   C25       1.0  0.4754554563431229  0.4580157883323688  0.8071356145513557  1.0000
  C   C26       1.0  0.5245445438039817  0.5419842118833608  0.19286438524181687  1.0000
  C   C27       1.0  0.4199491490453202  0.1428692015551557  0.32190836841861  1.0000
  C   C28       1.0  0.58005084981149  0.8571307977531123  0.6780916313733717  1.0000
  C   C29       1.0  0.2960005297936538  0.09753031267952803  0.22185947287747074  1.0000
  C   C30       1.0  0.7039994708120478  0.9024696880413495  0.7781405279574667  1.0000
  C   C31       1.0  0.8698130540225286  0.012356900814412628  0.2861664445942601  1.0000
  C   C32       1.0  0.1301869455123748  0.9876430999158133  0.7138335562386777  1.0000
  C   C33       1.0  0.008299567164155933  0.03741300044154542  0.265149302945116  1.0000
  C   C34       1.0  0.9917004319121505  0.9625869997835323  0.734850696846057  1.0000
  C   C35       1.0  0.006269232839210172  0.018694782092417928  0.13325991005030058  1.0000
  C   C36       1.0  0.9937307673078943  0.9813052181233115  0.866740089742872  1.0000
  C   C37       1.0  0.1488352165355138  0.04849851296271409  0.11097940240983285  1.0000
  C   C38       1.0  0.8511647840701878  0.9515014877581635  0.8890205984251046  1.0000
  C   C39       1.0  0.14396965280670398  0.030529699593360944  0.9789310393188253  1.0000
  C   C40       1.0  0.8560303460501063  0.9694702997149071  0.02106896047315632  1.0000
  C   C41       1.0  0.28524389332212535  0.05776532060344743  0.95390462883325  1.0000
  C   C42       1.0  0.7147561057541809  0.9422346796216303  0.04609537095792292  1.0000
  C   C43       1.0  0.278534577391085  0.035175413333500674  0.8242741756782124  1.0000
  C   C44       1.0  0.7214654227560195  0.9648245868822288  0.17572582411496024  1.0000
  C   C45       1.0  0.7902528916505476  0.22155560005967276  0.795951697062068  1.0000
  C   C46       1.0  0.209747108955154  0.7784444006612047  0.2040483037728693  1.0000
  C   C47       1.0  0.8660473405243018  0.2769747351491748  0.9399428189517758  1.0000
  C   C48       1.0  0.13395265855200475  0.723025265075903  0.0600571808393972  1.0000
  C   C49       1.0  0.02946834733885998  0.3482237520153026  0.999627386834779  1.0000
  C   C50       1.0  0.9705316525887485  0.6517762472836172  0.000372612959202243  1.0000
  C   C51       1.0  0.10831546247377852  0.3619345130635373  0.9153675204637529  1.0000
  C   C52       1.0  0.8916845374538298  0.6380654862353823  0.0846324793302283  1.0000
  C   C53       1.0  0.02154851384858298  0.30494676535280957  0.7732022972518883  1.0000
  C   C54       1.0  0.9784514860790255  0.6950532339461101  0.22679770254209294  1.0000
  C   C55       1.0  0.7729914337757651  0.26088549751768436  0.024386603274918508  1.0000
  C   C56       1.0  0.2270085663713395  0.739114502698045  0.9756133965182541  1.0000
  N   N1        1.0  0.86466958794147  0.23570033079692654  0.7143159917026195  1.0000
  N   N2        1.0  0.1353304119861385  0.764299668501993  0.28568400809136174  1.0000
  O   O1        1.0  0.6408883509540685  0.11589790025568075  0.45497623183470004  1.0000
  O   O2        1.0  0.3591116489735399  0.8841020990432389  0.5450237679592811  1.0000
