data_image0
_chemical_formula_structural       H80C112N4O4
_chemical_formula_sum              "H80 C112 N4 O4"
_cell_length_a       11.642770005804046
_cell_length_b       15.748601189765674
_cell_length_c       12.233506630455087
_cell_angle_alpha    90.0
_cell_angle_beta     116.64768861991948
_cell_angle_gamma    90.0

_space_group_name_H-M_alt    "P 1"
_space_group_IT_number       1

loop_
  _space_group_symop_operation_xyz
  'x, y, z'

loop_
  _atom_site_type_symbol
  _atom_site_label
  _atom_site_symmetry_multiplicity
  _atom_site_fract_x
  _atom_site_fract_y
  _atom_site_fract_z
  _atom_site_occupancy
  H   H1        1.0  0.829217664704675  0.3323459758064949  0.28456285410649745  1.0000
  H   H2        1.0  0.6707823351284754  0.832345975496446  0.21543714613069287  1.0000
  H   H3        1.0  0.17078233502146567  0.6676540242083842  0.71543714582682  1.0000
  H   H4        1.0  0.3292176645976653  0.16765402451843314  0.7845628538026247  1.0000
  H   H5        1.0  0.9340762271886596  0.47621810277815474  0.2734718010529903  1.0000
  H   H6        1.0  0.5659237730820821  0.9762181031030829  0.22652819827653303  1.0000
  H   H7        1.0  0.06592377253748101  0.5237818966017473  0.7265281988803273  1.0000
  H   H8        1.0  0.4340762275061783  0.023781896911796312  0.7734718016636636  1.0000
  H   H9        1.0  0.017600926901138753  0.6236378705419573  0.29333018742737166  1.0000
  H   H10       1.0  0.4823990738175196  0.12363787085200623  0.2066698134572725  1.0000
  H   H11       1.0  0.9823990741116498  0.37636212947292186  0.7066698134273708  1.0000
  H   H12       1.0  0.5176009263331492  0.8763621291628729  0.7933301873905909  1.0000
  H   H13       1.0  0.9675250864843227  0.7306909992411345  0.4131955719738272  1.0000
  H   H14       1.0  0.5324749142109474  0.23069099891620637  0.08680442827024205  1.0000
  H   H15       1.0  0.03247491410393764  0.26930900077374464  0.5868044279663692  1.0000
  H   H16       1.0  0.4675250855151934  0.7693090010986727  0.9131955716630756  1.0000
  H   H17       1.0  0.8306280198461927  0.6926755575656501  0.5158150469513874  1.0000
  H   H18       1.0  0.669371980174078  0.19267555724072208  0.9841849529520282  1.0000
  H   H19       1.0  0.16937197987994795  0.30732444244922896  0.48418495298193015  1.0000
  H   H20       1.0  0.3306280204141822  0.807324442774157  0.015815046988168116  1.0000
  H   H21       1.0  0.5926606701500724  0.37537467288470716  0.5366342495574146  1.0000
  H   H22       1.0  0.9073393298701985  0.8753746725746582  0.9633657503460012  1.0000
  H   H23       1.0  0.40733932957606833  0.624625327130172  0.46336575037590294  1.0000
  H   H24       1.0  0.0926606698559422  0.12462532744022092  0.0366342495873163  1.0000
  H   H25       1.0  0.6008977671916931  0.23209489820437734  0.45220611086276125  1.0000
  H   H26       1.0  0.899102233503577  0.7320948985293054  0.04779388938130809  1.0000
  H   H27       1.0  0.39910223253444765  0.7679051018105018  0.5477938890705564  1.0000
  H   H28       1.0  0.10089776708468329  0.26790510148557367  0.9522061105588883  1.0000
  H   H29       1.0  0.7170696830756534  0.21178866553351505  0.3267147487300377  1.0000
  H   H30       1.0  0.7829303163329687  0.7117886652234661  0.17328525059260672  1.0000
  H   H31       1.0  0.2829303166504873  0.788211334481364  0.6732852512032799  1.0000
  H   H32       1.0  0.21706968339317195  0.28821133479141303  0.8267147493407108  1.0000
  H   H33       1.0  0.7873319547200988  0.23329790790483962  0.8597755590306033  1.0000
  H   H34       1.0  0.7126680457247002  0.7332979075947906  0.6402244417873584  1.0000
  H   H35       1.0  0.21266804500604186  0.7667020921100395  0.14022444090271413  1.0000
  H   H36       1.0  0.2873319544259687  0.26670209242008847  0.3597755590605052  1.0000
  H   H37       1.0  0.7871333302305193  0.3709255190102961  0.760142746593269  1.0000
  H   H38       1.0  0.7128666702142796  0.8709255193352241  0.7398572542246927  1.0000
  H   H39       1.0  0.21286667035774096  0.629074480369606  0.23985725334692748  1.0000
  H   H40       1.0  0.2871333299363892  0.12907448067965493  0.2601427466231707  1.0000
  H   H41       1.0  0.9488407287698893  0.6644295156067568  0.7900109131882278  1.0000
  H   H42       1.0  0.5511592712503817  0.16442951591680569  0.709989086715188  1.0000
  H   H43       1.0  0.05115927095625146  0.33557048440812237  0.20998908674508973  1.0000
  H   H44       1.0  0.4488407284757591  0.8355704840980734  0.2900109132181295  1.0000
  H   H45       1.0  0.08285954857221044  0.7846382406349995  0.9169860039214943  1.0000
  H   H46       1.0  0.4171404514714488  0.2846382403100715  0.5830139966224963  1.0000
  H   H47       1.0  0.9171404511539303  0.21536175937987956  0.08301399601182309  1.0000
  H   H48       1.0  0.582859548254692  0.7153617597048076  0.4169860033108213  1.0000
  H   H49       1.0  0.5444488023141637  0.5508594195424591  0.36877458820730463  1.0000
  H   H50       1.0  0.9555511970944583  0.05085941985250803  0.13122541111533972  1.0000
  H   H51       1.0  0.45555119741197686  0.44914058047242006  0.6312254117260129  1.0000
  H   H52       1.0  0.044448802631682376  0.9491405801623711  0.8687745888179779  1.0000
  H   H53       1.0  0.3491460802900288  0.5728762904900406  0.9290857439645186  1.0000
  H   H54       1.0  0.15085391932910225  0.07287629016511254  0.5709142556649263  1.0000
  H   H55       1.0  0.6508539194361119  0.42712370952483847  0.07091425596879902  1.0000
  H   H56       1.0  0.8491460803970385  0.9271237098497666  0.42908574426839124  1.0000
  H   H57       1.0  0.25075205768865994  0.4288515423445357  0.9022131535112894  1.0000
  H   H58       1.0  0.24924794235499925  0.9288515426694638  0.5977868470327012  1.0000
  H   H59       1.0  0.7492479420374809  0.5711484576703434  0.09778684642202815  1.0000
  H   H60       1.0  0.7507520573711414  0.07114845734541532  0.40221315290061627  1.0000
  H   H61       1.0  0.29246211581036935  0.3421881242063622  0.08986834957543192  1.0000
  H   H62       1.0  0.2075378844837608  0.8421881245312903  0.41013165039466626  1.0000
  H   H63       1.0  0.7075378839157713  0.657811875808517  0.9101316503578856  1.0000
  H   H64       1.0  0.7924621161044997  0.15781187548358885  0.5898683495455302  1.0000
  H   H65       1.0  0.4262161805516171  0.40753178664342665  0.29570968872581194  1.0000
  H   H66       1.0  0.07378381974251305  0.9075317863333776  0.2042903112442863  1.0000
  H   H67       1.0  0.5737838191745235  0.5924682133714525  0.7042903112075055  1.0000
  H   H68       1.0  0.9262161799836275  0.09246821368150142  0.7957096886890312  1.0000
  H   H69       1.0  0.4500063418907762  0.6957662009449257  0.17989070486832756  1.0000
  H   H70       1.0  0.049993658403353895  0.19576620061999758  0.32010929510177066  1.0000
  H   H71       1.0  0.5499936586974841  0.30423379906995346  0.8201092950718689  1.0000
  H   H72       1.0  0.9500063413227868  0.8042337993948815  0.6798907048315469  1.0000
  H   H73       1.0  0.5033063324695682  0.6768097510099303  0.06632467654548335  1.0000
  H   H74       1.0  0.9966936673635822  0.17680975131997936  0.43367532369170697  1.0000
  H   H75       1.0  0.49669366725657255  0.3231902490049487  0.9336753233878343  1.0000
  H   H76       1.0  0.003306332362558535  0.8231902486948998  0.5663246762416106  1.0000
  H   H77       1.0  0.6012807656117042  0.6472431181141407  0.2219641027605024  1.0000
  H   H78       1.0  0.8987192350835659  0.14724311778921254  0.2780358974835669  1.0000
  H   H79       1.0  0.39871923411443644  0.3527568819007385  0.7780358971728151  1.0000
  H   H80       1.0  0.10128076550469448  0.8527568822256666  0.7219641024566296  1.0000
  C   C1        1.0  0.7772553949044814  0.3420438942539601  0.33894685813709363  1.0000
  C   C2        1.0  0.722744604928669  0.8420438939439111  0.1610531421000967  1.0000
  C   C3        1.0  0.2227446048216593  0.657956105760919  0.6610531417962239  1.0000
  C   C4        1.0  0.2772553947974717  0.15795610607096802  0.838946857833221  1.0000
  C   C5        1.0  0.7731733715569429  0.4217031462016987  0.3870985280370029  1.0000
  C   C6        1.0  0.7268266282762076  0.9217031465266268  0.11290147220018742  1.0000
  C   C7        1.0  0.22682662816919777  0.5782968538131804  0.6129014718963146  1.0000
  C   C8        1.0  0.2731733714499332  0.07829685348825237  0.8870985277331301  1.0000
  C   C9        1.0  0.8319342394716448  0.5026387045183522  0.38047112101418396  1.0000
  C   C10       1.0  0.6680657603615057  0.002638704193424198  0.11952887922300635  1.0000
  C   C11       1.0  0.16806576025449593  0.49736129549652686  0.6195288789191336  1.0000
  C   C12       1.0  0.33193423936463495  0.9973612958214549  0.8804711207103111  1.0000
  C   C13       1.0  0.9089267797566766  0.523628081671087  0.32396047681307244  1.0000
  C   C14       1.0  0.5910732209385934  0.023628081346159017  0.17603952343099688  1.0000
  C   C15       1.0  0.0910732208315837  0.47637191834379206  0.676039523127124  1.0000
  C   C16       1.0  0.40892677964966684  0.9763719186687201  0.8239604765091996  1.0000
  C   C17       1.0  0.9566556069950902  0.6063260968348947  0.33624949761681816  1.0000
  C   C18       1.0  0.5433443924135319  0.1063260965099666  0.16375050170582625  1.0000
  C   C19       1.0  0.043344392731050424  0.3936739031799844  0.6637505023164995  1.0000
  C   C20       1.0  0.4566556073126087  0.8936739035049125  0.8362494982274912  1.0000
  C   C21       1.0  0.9283194794959693  0.6668593136274766  0.4044409788539253  1.0000
  C   C22       1.0  0.5716805203371812  0.16685931393752562  0.09555902138326497  1.0000
  C   C23       1.0  0.07168052023017146  0.3331406863874025  0.5955590210793922  1.0000
  C   C24       1.0  0.42831947938895953  0.8331406860773535  0.9044409785500526  1.0000
  C   C25       1.0  0.8515449168445693  0.6458319915174215  0.4616375330595125  1.0000
  C   C26       1.0  0.6484550838507006  0.1458319918274705  0.03836246718455673  1.0000
  C   C27       1.0  0.14845508416821923  0.3541680084974576  0.5383624677952299  1.0000
  C   C28       1.0  0.35154491673755967  0.8541680081874086  0.9616375327556398  1.0000
  C   C29       1.0  0.8035143972959026  0.5638365492276537  0.44853364862394624  1.0000
  C   C30       1.0  0.6964856033993675  0.06383654890272566  0.05146635162012302  1.0000
  C   C31       1.0  0.19648560329235787  0.4361634507872254  0.5514663513162503  1.0000
  C   C32       1.0  0.3035143971888928  0.9361634511121535  0.9485336483200735  1.0000
  C   C33       1.0  0.7173772871943488  0.5256718873152935  0.5011594606813313  1.0000
  C   C34       1.0  0.7826227128259219  0.025671886990365496  0.9988405392220844  1.0000
  C   C35       1.0  0.2826227125317918  0.4743281126995856  0.49884053925198624  1.0000
  C   C36       1.0  0.21737728690021874  0.9743281130245136  0.0011594607112331208  1.0000
  C   C37       1.0  0.7072309753481217  0.4328472680119616  0.45839489603654643  1.0000
  C   C38       1.0  0.7927690240605005  0.9328472677019126  0.041605103286098  1.0000
  C   C39       1.0  0.29276902437801905  0.5671527320029176  0.5416051038967712  1.0000
  C   C40       1.0  0.20723097566564014  0.0671527323129665  0.9583948966472194  1.0000
  C   C41       1.0  0.6457083456537259  0.3655833683655345  0.48347381850901056  1.0000
  C   C42       1.0  0.854291655041544  0.8655833686904626  0.01652618173505867  1.0000
  C   C43       1.0  0.35429165493453435  0.6344166316493446  0.5165261814311859  1.0000
  C   C44       1.0  0.14570834554671633  0.13441663132441653  0.9834738182051379  1.0000
  C   C45       1.0  0.6500176142054217  0.2856162960633666  0.4351373146440421  1.0000
  C   C46       1.0  0.8499823852032005  0.7856162963882947  0.06486268467860237  1.0000
  C   C47       1.0  0.349982385520719  0.7143837039515125  0.5648626852892755  1.0000
  C   C48       1.0  0.15001761452294016  0.21438370362658446  0.9351373152547151  1.0000
  C   C49       1.0  0.7154699852766256  0.27419558841874836  0.36414597226529644  1.0000
  C   C50       1.0  0.7845300154186445  0.7741955887436764  0.13585402797877288  1.0000
  C   C51       1.0  0.28453001531163474  0.7258044115961307  0.6358540276749002  1.0000
  C   C52       1.0  0.21546998516961588  0.22580441127120265  0.8641459719614237  1.0000
  C   C53       1.0  0.7830894343553436  0.5274323674789552  0.6345581755224228  1.0000
  C   C54       1.0  0.7169105656649272  0.02743236778900413  0.8654418243809932  1.0000
  C   C55       1.0  0.21691056623291666  0.47256763253592393  0.36544182441777384  1.0000
  C   C56       1.0  0.28308943406121356  0.9725676322258751  0.1345581755523244  1.0000
  C   C57       1.0  0.8474842281448082  0.5212180396906816  0.7448137818793176  1.0000
  C   C58       1.0  0.6525157718754628  0.021218039365753467  0.7551862180240982  1.0000
  C   C59       1.0  0.15251577244345224  0.47878196032419756  0.255186218060879  1.0000
  C   C60       1.0  0.34748422785067795  0.9787819606491256  0.24481378190921924  1.0000
  C   C61       1.0  0.8438039360843802  0.2867804197705511  0.9139533938864668  1.0000
  C   C62       1.0  0.6561960639358907  0.786780419460502  0.586046606016949  1.0000
  C   C63       1.0  0.15619606450388013  0.7132195802443281  0.08604660605372974  1.0000
  C   C64       1.0  0.34380393579025004  0.213219580554377  0.41395339391636854  1.0000
  C   C65       1.0  0.8443797482412774  0.3625850995395587  0.8584279480539121  1.0000
  C   C66       1.0  0.6556202522035216  0.8625850992295098  0.6415720527640497  1.0000
  C   C67       1.0  0.15562025190939147  0.6374149004753205  0.1415720527939514  1.0000
  C   C68       1.0  0.34437974838473867  0.13741490078536936  0.35842794717614684  1.0000
  C   C69       1.0  0.9207627520835217  0.43211037970930133  0.9277326197225121  1.0000
  C   C70       1.0  0.5792372479367492  0.9321103793992523  0.5722673801809037  1.0000
  C   C71       1.0  0.07923724764261912  0.5678896203055778  0.07226738021080548  1.0000
  C   C72       1.0  0.4207627517893915  0.06788962061562677  0.42773261975241383  1.0000
  C   C73       1.0  0.9233573215200094  0.5107653049991093  0.871731649822884  1.0000
  C   C74       1.0  0.5766426785002613  0.010765304674181197  0.6282683500805316  1.0000
  C   C75       1.0  0.07664267820613123  0.4892346950157698  0.12826835011043342  1.0000
  C   C76       1.0  0.4233573220879989  0.9892346953406979  0.37173164985966484  1.0000
  C   C77       1.0  0.002425288642577638  0.5784289703087935  0.9427654792527806  1.0000
  C   C78       1.0  0.49757471097655337  0.07842896998386546  0.557234520376664  1.0000
  C   C79       1.0  0.997574711083563  0.4215710297060856  0.05723452068053682  1.0000
  C   C80       1.0  0.5024252887495874  0.9215710300310136  0.4427654795566535  1.0000
  C   C81       1.0  0.007147621157611643  0.6575170464491312  0.8884522666431008  1.0000
  C   C82       1.0  0.4928523784615194  0.15751704675918016  0.611547732986344  1.0000
  C   C83       1.0  0.9928523785685293  0.3424829535657479  0.11154773329021683  1.0000
  C   C84       1.0  0.5071476212646213  0.8424829532556989  0.3884522669469735  1.0000
  C   C85       1.0  0.08174305070840149  0.7233796711674496  0.9578496341014272  1.0000
  C   C86       1.0  0.4182569489107294  0.22337967084252155  0.5421503655280174  1.0000
  C   C87       1.0  0.9182569490177391  0.2766203288474295  0.04215036583189024  1.0000
  C   C88       1.0  0.5817430508154112  0.7766203291723575  0.4578496344053  1.0000
  C   C89       1.0  0.4395180558079831  0.5653900687882291  0.1261652083633523  1.0000
  C   C90       1.0  0.06048194362402745  0.06539006846330093  0.37383479159986704  1.0000
  C   C91       1.0  0.5604819439181576  0.43460993122665015  0.8738347915699654  1.0000
  C   C92       1.0  0.9395180561021134  0.9346099315515782  0.6261652083334505  1.0000
  C   C93       1.0  0.36405421233414653  0.5342151171792534  0.008212186438791444  1.0000
  C   C94       1.0  0.13594578795998366  0.034215116854325364  0.4917878135313068  1.0000
  C   C95       1.0  0.6359457873919941  0.4657848828356257  0.991787813494526  1.0000
  C   C96       1.0  0.8640542117661569  0.9657848831605538  0.5082121864020107  1.0000
  C   C97       1.0  0.3098547897087532  0.4536121503059214  0.9937024597697988  1.0000
  C   C98       1.0  0.190145210334906  0.9536121499958724  0.5062975407741918  1.0000
  C   C99       1.0  0.6901452104419157  0.5463878497089577  0.0062975410780646114  1.0000
  C   C100      1.0  0.8098547893912347  0.04638784938402963  0.49370245915912564  1.0000
  C   C101      1.0  0.33236507329817994  0.40564515940320495  0.09719781308010868  1.0000
  C   C102      1.0  0.16763492699595017  0.9056451597281331  0.40280218688998953  1.0000
  C   C103      1.0  0.6676349264279609  0.5943548406116741  0.9028021868532089  1.0000
  C   C104      1.0  0.83236507359231  0.09435484028674611  0.5971978130502069  1.0000
  C   C105      1.0  0.40678777571234254  0.4414110222384413  0.21149631618645764  1.0000
  C   C106      1.0  0.09321222458178757  0.9414110219283924  0.2885036837836406  1.0000
  C   C107      1.0  0.5932122240137981  0.5585889777764378  0.7885036837468599  1.0000
  C   C108      1.0  0.9067877760064728  0.058588978086486734  0.711496316156556  1.0000
  C   C109      1.0  0.5021948933535862  0.6511094595921106  0.14909767322190348  1.0000
  C   C110      1.0  0.9978051073416837  0.15110945990215965  0.3509023270221658  1.0000
  C   C111      1.0  0.49780510637255454  0.3488905404227684  0.8509023267114141  1.0000
  C   C112      1.0  0.0021948932465764796  0.8488905401127195  0.6490976729180307  1.0000
  N   N1        1.0  0.4588205288733313  0.5189691840892701  0.22550776562612473  1.0000
  N   N2        1.0  0.04117947055867926  0.01896918439931902  0.2744922343370946  1.0000
  N   N3        1.0  0.5411794708528095  0.4810308159256091  0.7744922343071929  1.0000
  N   N4        1.0  0.9588205291674614  0.98103081561556  0.7255077655962229  1.0000
  O   O1        1.0  0.5967170654256718  0.5679134128948679  0.45841103868880384  1.0000
  O   O2        1.0  0.9032829339829503  0.06791341320491677  0.041588960633840565  1.0000
  O   O3        1.0  0.4032829343004689  0.43208658712001136  0.5415889612445137  1.0000
  O   O4        1.0  0.09671706574319033  0.9320865868099623  0.958411039299477  1.0000
