data_image0
_chemical_formula_structural       H52C34N4O8Cl2
_chemical_formula_sum              "H52 C34 N4 O8 Cl2"
_cell_length_a       7.255421859095976
_cell_length_b       11.838944433537293
_cell_length_c       12.542195501839998
_cell_angle_alpha    110.21185221106802
_cell_angle_beta     112.95958901880819
_cell_angle_gamma    96.00450971047914

_space_group_name_H-M_alt    "P 1"
_space_group_IT_number       1

loop_
  _space_group_symop_operation_xyz
  'x, y, z'

loop_
  _atom_site_type_symbol
  _atom_site_label
  _atom_site_symmetry_multiplicity
  _atom_site_fract_x
  _atom_site_fract_y
  _atom_site_fract_z
  _atom_site_occupancy
  H   H1        1.0  0.0876206429604021  0.7599374724736896  0.13543933224408136  1.0000
  H   H2        1.0  0.9123793579025213  0.24006252772780107  0.8645606683219067  1.0000
  H   H3        1.0  0.5190922704547765  0.26224761560678433  0.4006834752675656  1.0000
  H   H4        1.0  0.48090772831717465  0.7377523841983439  0.5993165243447299  1.0000
  H   H5        1.0  0.7541362527237839  0.47088579629454075  0.5749864664351839  1.0000
  H   H6        1.0  0.245863746761884  0.5291142039076208  0.42501353413215076  1.0000
  H   H7        1.0  0.7612569686553398  0.5989107309908203  0.2939038645124019  1.0000
  H   H8        1.0  0.23874303011661138  0.401089268814308  0.7060961350998938  1.0000
  H   H9        1.0  0.5157760454415328  0.39440806907222764  0.1200619593365975  1.0000
  H   H10       1.0  0.48422395470767393  0.6055919307322297  0.8799380402743513  1.0000
  H   H11       1.0  0.1946042794930614  0.1930452674194467  0.13258514976804223  1.0000
  H   H12       1.0  0.8053957206561453  0.8069547323850107  0.8674148498429065  1.0000
  H   H13       1.0  0.35061567209550615  0.18273789100015897  0.05323633202558507  1.0000
  H   H14       1.0  0.6493843287674175  0.8172621092013318  0.9467636685404031  1.0000
  H   H15       1.0  0.5251358177511909  0.9176416142520618  0.26289629092601985  1.0000
  H   H16       1.0  0.47486418102076033  0.08235838555306643  0.7371037086862758  1.0000
  H   H17       1.0  0.34188188725754726  0.9252035143586856  0.3241484931932324  1.0000
  H   H18       1.0  0.6581181136053763  0.07479648584280506  0.6758515073727557  1.0000
  H   H19       1.0  0.6617437093777245  0.11162825084083633  0.12612243417995309  1.0000
  H   H20       1.0  0.33825629077148217  0.888371748963621  0.8738775654309958  1.0000
  H   H21       1.0  0.6177413006923032  0.9683704841879849  0.13983966734490166  1.0000
  H   H22       1.0  0.38225869879336494  0.031629516014176656  0.8601603332224332  1.0000
  H   H23       1.0  0.74159698405329  0.11218788705398927  0.2778239432749066  1.0000
  H   H24       1.0  0.2584030147186612  0.8878121127511389  0.722176056337389  1.0000
  H   H25       1.0  0.9758257923234361  0.9292827615098069  0.16192229935957692  1.0000
  H   H26       1.0  0.024174207162231863  0.0707172386923545  0.8380777012077579  1.0000
  H   H27       1.0  0.9894800314931949  0.04822365927487893  0.1086508221186817  1.0000
  H   H28       1.0  0.010519967278756398  0.9517763405302494  0.8913491774936141  1.0000
  H   H29       1.0  0.09196628272433764  0.08729311239669901  0.27398993250908155  1.0000
  H   H30       1.0  0.9080337174248692  0.9127068874077584  0.7260100671018673  1.0000
  H   H31       1.0  0.48342463188304774  0.6920299890500465  0.19392863401523394  1.0000
  H   H32       1.0  0.516575368266159  0.307970010754411  0.8060713655957149  1.0000
  H   H33       1.0  0.22925277146070383  0.5921577290075828  0.12487537239745301  1.0000
  H   H34       1.0  0.7707472286885029  0.4078422707968747  0.8751246272134958  1.0000
  H   H35       1.0  0.39485436726222894  0.6288930234279727  0.34577320523382665  1.0000
  H   H36       1.0  0.6051456328869779  0.3711069763764848  0.6542267943771223  1.0000
  H   H37       1.0  0.2033249445177814  0.7128769555184978  0.3295654436695099  1.0000
  H   H38       1.0  0.7966750556314254  0.28712304428595964  0.670434555941439  1.0000
  H   H39       1.0  0.4728288957379308  0.7942251409560904  0.40208507199393917  1.0000
  H   H40       1.0  0.5271711037477373  0.20577485924607114  0.5979149285733958  1.0000
  H   H41       1.0  0.17771298864006457  0.8253285450189987  0.9927672616054363  1.0000
  H   H42       1.0  0.8222870115091421  0.1746714547854588  0.00723273800551252  1.0000
  H   H43       1.0  0.3817173191280796  0.7517050618170223  0.024243025494659214  1.0000
  H   H44       1.0  0.6182826810211272  0.24829493798743496  0.9757569741162896  1.0000
  H   H45       1.0  0.04573277639117796  0.6174246019650552  0.8192981426917564  1.0000
  H   H46       1.0  0.9542672237580287  0.3825753978394023  0.18070185691919244  1.0000
  H   H47       1.0  0.917326649236179  0.6168019681398731  0.9141182091157379  1.0000
  H   H48       1.0  0.08267335091302769  0.3831980316645843  0.08588179049521079  1.0000
  H   H49       1.0  0.12214591303146209  0.5422225516298439  0.9231301283166734  1.0000
  H   H50       1.0  0.8778540871177447  0.45777744817461363  0.07686987129427547  1.0000
  H   H51       1.0  0.8491517912509003  0.8224811468939692  0.27154134034458716  1.0000
  H   H52       1.0  0.15084820889830644  0.17751885291048827  0.7284586592663618  1.0000
  C   C1        1.0  0.5009755972684375  0.3147596869618529  0.248814429258373  1.0000
  C   C2        1.0  0.4990244028807693  0.6852403128426046  0.7511855703525759  1.0000
  C   C3        1.0  0.5692832687888119  0.33679870942955703  0.3774531690721412  1.0000
  C   C4        1.0  0.43071673136039484  0.6632012903749005  0.6225468305388077  1.0000
  C   C5        1.0  0.7008410089754248  0.45163289788632777  0.47490071912735615  1.0000
  C   C6        1.0  0.2991589918874987  0.548367102315163  0.5250992814386319  1.0000
  C   C7        1.0  0.7669776120977495  0.544674025838588  0.44288010033299424  1.0000
  C   C8        1.0  0.2330223866742017  0.4553259739665402  0.5571198992793014  1.0000
  C   C9        1.0  0.7055103952480181  0.5252087387881398  0.31621003826427724  1.0000
  C   C10       1.0  0.2944896049011887  0.4747912610163176  0.6837899613466716  1.0000
  C   C11       1.0  0.5705643527698272  0.41018579087612994  0.21974327380590183  1.0000
  C   C12       1.0  0.4294356460021241  0.5898142089289984  0.7802567258063938  1.0000
  C   C13       1.0  0.3519369547120491  0.1904850759784793  0.14358922865043675  1.0000
  C   C14       1.0  0.648063044773619  0.8095149242236822  0.8564107719168982  1.0000
  C   C15       1.0  0.4080129667860026  0.08053207805731562  0.1703612881424408  1.0000
  C   C16       1.0  0.591987034076921  0.919467922144175  0.8296387124235473  1.0000
  C   C17       1.0  0.2845561071603573  0.005639911432419466  0.19107956036905394  1.0000
  C   C18       1.0  0.7154438937025662  0.9943600887690713  0.8089204401969341  1.0000
  C   C19       1.0  0.3613004888817909  0.9108241393429383  0.23835393346274927  1.0000
  C   C20       1.0  0.6386995112674159  0.08917586046151914  0.7616460661481995  1.0000
  C   C21       1.0  0.616827450723522  0.06658042486976652  0.17885773850733497  1.0000
  C   C22       1.0  0.38317254942568485  0.933419574934691  0.8211422611036139  1.0000
  C   C23       1.0  0.07560460139143557  0.01849989872528893  0.18302932834647434  1.0000
  C   C24       1.0  0.924395399471488  0.9815001014762017  0.8169706722195137  1.0000
  C   C25       1.0  0.3324699477158628  0.685540235233163  0.19525181376250444  1.0000
  C   C26       1.0  0.6675300531470608  0.3144597649683276  0.8047481868034836  1.0000
  C   C27       1.0  0.3515099372081837  0.708371161900068  0.32630638429610753  1.0000
  C   C28       1.0  0.6484900622774844  0.2916288383020935  0.6736936162712274  1.0000
  C   C29       1.0  0.22372443984617343  0.7474950886081496  0.014643668329074155  1.0000
  C   C30       1.0  0.7762755610167502  0.2525049115933412  0.985356332236914  1.0000
  C   C31       1.0  0.06859690081283912  0.6229985793624726  0.9128999985167084  1.0000
  C   C32       1.0  0.9314030993363677  0.3770014204419849  0.08710000109424054  1.0000
  C   C33       1.0  0.01648679166224239  0.9559877437429779  0.44460014523014835  1.0000
  C   C34       1.0  0.9835132078234258  0.04401225645918374  0.5553998553371866  1.0000
  N   N1        1.0  0.24040241419155184  0.7758773805165988  0.1451673424829285  1.0000
  N   N2        1.0  0.7595975847239894  0.22412262013698925  0.8548326571272701  1.0000
  N   N3        1.0  0.8999876442248288  0.6665140685202856  0.5454995115014373  1.0000
  N   N4        1.0  0.10001235592437795  0.3334859312841718  0.4545004881095116  1.0000
  O   O1        1.0  0.9405159364199901  0.6843649494620071  0.6571149073366712  1.0000
  O   O2        1.0  0.05948406320926803  0.31563505158861427  0.3428850932285666  1.0000
  O   O3        1.0  0.9648526705449042  0.7476175633240781  0.5168964383705029  1.0000
  O   O4        1.0  0.03514733031801944  0.2523824368774126  0.4831035621954851  1.0000
  O   O5        1.0  0.8345421842303338  0.886080744831728  0.3453340236335517  1.0000
  O   O6        1.0  0.1654578166325898  0.11391925536976281  0.6546659769324363  1.0000
  O   O7        1.0  0.18883779646506055  0.954181659558278  0.45130148627384886  1.0000
  O   O8        1.0  0.8111622036841463  0.04581834024617936  0.5486985133371  1.0000
  Cl  Cl1       1.0  0.7915959601665037  0.6870281049529416  0.11336699826685495  1.0000
  Cl  Cl2       1.0  0.20840403998270307  0.3129718948515157  0.8866330013440938  1.0000
