data_image0
_chemical_formula_structural       H40C44N6O12S4
_chemical_formula_sum              "H40 C44 N6 O12 S4"
_cell_length_a       5.011014033759461
_cell_length_b       11.086930823640808
_cell_length_c       19.380821944191094
_cell_angle_alpha    100.73615258207649
_cell_angle_beta     94.88624688657387
_cell_angle_gamma    100.4838409914194

_space_group_name_H-M_alt    "P 1"
_space_group_IT_number       1

loop_
  _space_group_symop_operation_xyz
  'x, y, z'

loop_
  _atom_site_type_symbol
  _atom_site_label
  _atom_site_symmetry_multiplicity
  _atom_site_fract_x
  _atom_site_fract_y
  _atom_site_fract_z
  _atom_site_occupancy
  H   H1        1.0  0.14431325743882115  0.36002138730227073  0.1169671453041706  1.0000
  H   H2        1.0  0.8556867424591652  0.6399786127483265  0.8830328546675232  1.0000
  H   H3        1.0  0.0746464478152732  0.8497184164804433  0.100615406591617  1.0000
  H   H4        1.0  0.9253535520827133  0.1502815835701538  0.8993845933800769  1.0000
  H   H5        1.0  0.9278273673345873  0.6267807238645767  0.039031844371938774  1.0000
  H   H6        1.0  0.07217263256339922  0.37321927618602063  0.9609681555997552  1.0000
  H   H7        1.0  0.23653196870957943  0.7821470823303913  0.2612324492776198  1.0000
  H   H8        1.0  0.7634680307680165  0.2178529167828415  0.7387675505838308  1.0000
  H   H9        1.0  0.9454748217214564  0.8087067934847042  0.35678382591465513  1.0000
  H   H10       1.0  0.05452517817653001  0.19129320656589313  0.6432161740570388  1.0000
  H   H11       1.0  0.5667496514909114  0.416785981399028  0.2964914377872517  1.0000
  H   H12       1.0  0.433250348407075  0.5832140186515693  0.7035085621844421  1.0000
  H   H13       1.0  0.8568902514485146  0.3901860840974299  0.19993666265946378  1.0000
  H   H14       1.0  0.14310974846316393  0.6098139159511571  0.8000633378282765  1.0000
  H   H15       1.0  0.6819101305521185  0.6161002901875451  0.521931369719566  1.0000
  H   H16       1.0  0.318089869345868  0.3838997098630523  0.4780686302521278  1.0000
  H   H17       1.0  0.9745436716625161  0.6524775330587329  0.47532044272951757  1.0000
  H   H18       1.0  0.025456328235470383  0.3475224669918644  0.5246795572421763  1.0000
  H   H19       1.0  0.7757310355256087  0.49561659726843016  0.45721451018485104  1.0000
  H   H20       1.0  0.22426896437237767  0.5043834027821671  0.5427854897868429  1.0000
  H   H21       1.0  0.5680520511705099  0.9289074974206311  0.29094889073461183  1.0000
  H   H22       1.0  0.4319479507288321  0.07109250262665077  0.7090511092770454  1.0000
  H   H23       1.0  0.0294630111913461  0.307472251682398  0.33084295855822693  1.0000
  H   H24       1.0  0.9705369887066402  0.6925277483681992  0.669157041413467  1.0000
  H   H25       1.0  0.23352729625969162  0.2562034676179807  0.21784646928298507  1.0000
  H   H26       1.0  0.7664727036382948  0.7437965324326166  0.7821535306887087  1.0000
  H   H27       1.0  0.10465343911305183  0.04806831060643731  0.14194075918129861  1.0000
  H   H28       1.0  0.8953465607849346  0.95193168944416  0.8580592407903953  1.0000
  H   H29       1.0  0.7317647544005866  0.1181647154815258  0.5075341136393158  1.0000
  H   H30       1.0  0.2682352454973997  0.8818352845690715  0.4924658863323782  1.0000
  H   H31       1.0  0.032069841199979326  0.13073316546066246  0.4605235535765961  1.0000
  H   H32       1.0  0.9679301582776165  0.8692668336525704  0.5394764462848545  1.0000
  H   H33       1.0  0.7739466518462095  0.9883461519548775  0.4403657756688271  1.0000
  H   H34       1.0  0.22605334805177696  0.011653848095719888  0.5596342243028668  1.0000
  H   H35       1.0  0.8034953266315581  0.06795607405782847  0.007945183620044354  1.0000
  H   H36       1.0  0.19650467326642834  0.9320439259927689  0.9920548163516494  1.0000
  H   H37       1.0  0.5590643381373308  0.05902160102223734  0.9357765198633686  1.0000
  H   H38       1.0  0.4409356617606555  0.9409783990283599  0.06422348010832536  1.0000
  H   H39       1.0  0.5852274783148509  0.35920047001059785  0.04431569709845534  1.0000
  H   H40       1.0  0.41477252158313543  0.6407995300399995  0.9556843028732385  1.0000
  C   C1        1.0  0.2676826206063441  0.4534172670511223  0.12294270629247822  1.0000
  C   C2        1.0  0.7323173792916423  0.546582732999475  0.8770572936792156  1.0000
  C   C3        1.0  0.2503803589247906  0.5636516654813487  0.16937577735658413  1.0000
  C   C4        1.0  0.7496196409731958  0.4363483345692486  0.8306242226151097  1.0000
  C   C5        1.0  0.7481654660875201  0.8413609077382992  0.1684994067327429  1.0000
  C   C6        1.0  0.25183453381046633  0.15863909231229814  0.8315005932389511  1.0000
  C   C7        1.0  0.8975218632903537  0.7913251969584028  0.11464829406072143  1.0000
  C   C8        1.0  0.1024781361872423  0.20867480215483017  0.8853517058007293  1.0000
  C   C9        1.0  0.8194686565450983  0.6673796021874071  0.08085258283886029  1.0000
  C   C10       1.0  0.18053134335288812  0.3326203978631902  0.9191474171328335  1.0000
  C   C11       1.0  0.5960403906685987  0.5939529373638173  0.10226732287279518  1.0000
  C   C12       1.0  0.4039596092293877  0.40604706268678004  0.8977326770988986  1.0000
  C   C13       1.0  0.07264234525670686  0.5844879393581851  0.22413473443544857  1.0000
  C   C14       1.0  0.9273576546412795  0.41551206069241214  0.7758652655362454  1.0000
  C   C15       1.0  0.09015974218577005  0.7023014908684032  0.26860191104471154  1.0000
  C   C16       1.0  0.9098402577122164  0.2976985091821941  0.7313980889269824  1.0000
  C   C17       1.0  0.9248688853739633  0.7171562683964109  0.3222543358419198  1.0000
  C   C18       1.0  0.07513111452402317  0.28284373165418636  0.6777456641297741  1.0000
  C   C19       1.0  0.7380486673276685  0.6141923741097651  0.3319021088082825  1.0000
  C   C20       1.0  0.2619513325703179  0.3858076259408321  0.6680978911634113  1.0000
  C   C21       1.0  0.7121780844073344  0.4965192735358735  0.28771345107771745  1.0000
  C   C22       1.0  0.28782191549065195  0.5034807265147239  0.7122865488939764  1.0000
  C   C23       1.0  0.8772090083963769  0.48212221301660474  0.23402818384944962  1.0000
  C   C24       1.0  0.12279099150160949  0.5178777870339927  0.7659718161222443  1.0000
  C   C25       1.0  0.7699437350485169  0.5952582021252107  0.4722681291524856  1.0000
  C   C26       1.0  0.23005626484946964  0.40474179792538656  0.5277318708192082  1.0000
  C   C27       1.0  0.8266281575029585  0.9708918469851745  0.21080200533943844  1.0000
  C   C28       1.0  0.17337184239502787  0.029108153065422707  0.7891979946322554  1.0000
  C   C29       1.0  0.7121394432112058  9.218557363189692e-05  0.27400659500413466  1.0000
  C   C30       1.0  0.2878605586881361  0.9999078144736497  0.7259934050075225  1.0000
  C   C31       1.0  0.7836657973095957  0.12011004709420207  0.315552192696001  1.0000
  C   C32       1.0  0.2163342025883907  0.8798899529563953  0.6844478072756929  1.0000
  C   C33       1.0  0.9724787337251207  0.21425051150176466  0.29698948075732456  1.0000
  C   C34       1.0  0.027521266172865627  0.7857494885488326  0.7030105192143693  1.0000
  C   C35       1.0  0.08579112112468368  0.18508441939510653  0.234091507296935  1.0000
  C   C36       1.0  0.9142088787733027  0.8149155806554907  0.7659084926747589  1.0000
  C   C37       1.0  0.014252465607092049  0.06518005095792438  0.19118230369494135  1.0000
  C   C38       1.0  0.9857475342908943  0.934819949092673  0.8088176962767526  1.0000
  C   C39       1.0  0.8139365009843873  0.09067799356924763  0.4574743091184561  1.0000
  C   C40       1.0  0.1860634989135991  0.9093220064813498  0.5425256908532378  1.0000
  C   C41       1.0  0.5832628818947573  0.05956831290589043  0.9928257794534666  1.0000
  C   C42       1.0  0.4167371180032291  0.9404316871447068  0.007174220518227224  1.0000
  C   C43       1.0  0.5007988847084442  0.1763239660191083  0.0302497111065264  1.0000
  C   C44       1.0  0.4992011151895422  0.823676034031489  0.9697502888651675  1.0000
  N   N1        1.0  0.47591931790093084  0.4722237337137922  0.0828189238791063  1.0000
  N   N2        1.0  0.5240806819970556  0.5277762663368051  0.9171810760925875  1.0000
  N   N3        1.0  0.4613608541406843  0.6524995476496291  0.15519748796125876  1.0000
  N   N4        1.0  0.5386391457573021  0.3475004524009681  0.8448025120104351  1.0000
  N   N5        1.0  0.5288518959291512  0.7734189751347283  0.18686894787950073  1.0000
  N   N6        1.0  0.47114810396883516  0.22658102491586887  0.8131310520921932  1.0000
  O   O1        1.0  0.3000822058791245  0.5373546284492791  0.39012656000027096  1.0000
  O   O2        1.0  0.6999177960339097  0.46264537159599234  0.6098734405274326  1.0000
  O   O3        1.0  0.5366447300678411  0.7637443092248635  0.4251956830937934  1.0000
  O   O4        1.0  0.4633552698301453  0.23625569082573378  0.5748043168779005  1.0000
  O   O5        1.0  0.659886324751873  0.28523663337425137  0.4164602736069833  1.0000
  O   O6        1.0  0.34011367514611335  0.714763366676346  0.5835397263647105  1.0000
  O   O7        1.0  0.34998138613525226  0.07374534699614413  0.38077361114626684  1.0000
  O   O8        1.0  0.6500186137627341  0.9262546530544531  0.619226388825427  1.0000
  O   O9        1.0  0.3058694953290114  0.17521147809622675  0.06519624736796296  1.0000
  O   O10       1.0  0.694130504568975  0.8247885219543705  0.9348037526037309  1.0000
  O   O11       1.0  0.6596707021748759  0.2805096139718066  0.020577186515047325  1.0000
  O   O12       1.0  0.3403292977231105  0.7194903860787906  0.9794228134566465  1.0000
  S   S1        1.0  0.551863150833855  0.6316835361600438  0.4058145541555171  1.0000
  S   S2        1.0  0.4481368490641314  0.3683164638905535  0.5941854458161767  1.0000
  S   S3        1.0  0.6250075326006517  0.14985996296022774  0.39434793689500797  1.0000
  S   S4        1.0  0.3749924672973347  0.8501400370903694  0.605652063076686  1.0000
