data_image0
_chemical_formula_structural       H40C44N6O12S4
_chemical_formula_sum              "H40 C44 N6 O12 S4"
_cell_length_a       10.013142410909493
_cell_length_b       10.577759446669578
_cell_length_c       10.996320422006969
_cell_angle_alpha    102.66494303260805
_cell_angle_beta     108.88621178920225
_cell_angle_gamma    97.90479464595961

_space_group_name_H-M_alt    "P 1"
_space_group_IT_number       1

loop_
  _space_group_symop_operation_xyz
  'x, y, z'

loop_
  _atom_site_type_symbol
  _atom_site_label
  _atom_site_symmetry_multiplicity
  _atom_site_fract_x
  _atom_site_fract_y
  _atom_site_fract_z
  _atom_site_occupancy
  H   H1        1.0  0.2421620851282117  0.3573855231242258  0.17588048010854115  1.0000
  H   H2        1.0  0.7578379144417153  0.6426144763543675  0.824119520249283  1.0000
  H   H3        1.0  0.9217292895519333  0.5263045371872567  0.5865788468596659  1.0000
  H   H4        1.0  0.07827071002573772  0.4736954622977435  0.4134211525924317  1.0000
  H   H5        1.0  0.7145005865970312  0.6382942022657696  0.5073896028432808  1.0000
  H   H6        1.0  0.2854994129728959  0.3617057972128238  0.49261039751454355  1.0000
  H   H7        1.0  0.5717387389756626  0.06620804205262336  0.17103057778085248  1.0000
  H   H8        1.0  0.4282612616573428  0.9337919574317254  0.8289694219874761  1.0000
  H   H9        1.0  0.4610948719216635  0.8333497660982362  0.040372688139636174  1.0000
  H   H10       1.0  0.5389051276560075  0.16665023338676407  0.9596273113124613  1.0000
  H   H11       1.0  0.041200683909244924  0.893186277135218  0.033387942908130706  1.0000
  H   H12       1.0  0.9587993159137883  0.10681372334441795  0.9666120568319204  1.0000
  H   H13       1.0  0.15195042577625062  0.1310462920046485  0.15893505253038348  1.0000
  H   H14       1.0  0.8480495740390388  0.8689537084685806  0.8410649481153946  1.0000
  H   H15       1.0  0.1072742560168379  0.6375521752637475  0.11086735926459747  1.0000
  H   H16       1.0  0.8927257437984515  0.3624478252094815  0.8891326413811806  1.0000
  H   H17       1.0  0.2857813136128893  0.6188643652276863  0.12301082888838147  1.0000
  H   H18       1.0  0.7142186859647819  0.38113563425731395  0.876989170563716  1.0000
  H   H19       1.0  0.13188737957557362  0.49142375681419137  0.004819337758330264  1.0000
  H   H20       1.0  0.8681126202397157  0.5085762436590376  0.995180662887448  1.0000
  H   H21       1.0  0.9742420328368006  0.346477986022419  0.7016953067597439  1.0000
  H   H22       1.0  0.025757966986232648  0.6535220144572167  0.2983046929803074  1.0000
  H   H23       1.0  0.23296577124633266  0.0832493101926942  0.5876396965878357  1.0000
  H   H24       1.0  0.7670342293866728  0.9167506892916547  0.4123603031804931  1.0000
  H   H25       1.0  0.09119157211049261  0.053367686899211404  0.3474695956069817  1.0000
  H   H26       1.0  0.9088084274671785  0.9466323125857888  0.6525304038451156  1.0000
  H   H27       1.0  0.8833098407657977  0.161624253211572  0.2843534558986265  1.0000
  H   H28       1.0  0.11669016011257004  0.8383757472674126  0.7156465441576558  1.0000
  H   H29       1.0  0.4320325555054388  0.3669203954801249  0.9764502579815801  1.0000
  H   H30       1.0  0.5679674443098506  0.6330796049931041  0.0235497426641981  1.0000
  H   H31       1.0  0.3328986366892203  0.4503190088397122  0.8611611243096475  1.0000
  H   H32       1.0  0.6671013631338132  0.5496809916399238  0.1388388754304036  1.0000
  H   H33       1.0  0.4237953595008626  0.3257836511495617  0.8057664357000947  1.0000
  H   H34       1.0  0.5762046400690645  0.6742163483290315  0.19423356465772967  1.0000
  H   H35       1.0  0.3514657591747327  0.9364235458738305  0.49991243946924036  1.0000
  H   H36       1.0  0.6485342404029384  0.06357645361116987  0.5000875599828571  1.0000
  H   H37       1.0  0.3843775442756646  0.9527001402850328  0.3562353657847283  1.0000
  H   H38       1.0  0.6156224555396247  0.04729986018819628  0.6437646348610498  1.0000
  H   H39       1.0  0.4085008342600697  0.6192105866653064  0.3463596785782575  1.0000
  H   H40       1.0  0.5914991655629637  0.3807894138143296  0.6536403211617937  1.0000
  C   C1        1.0  0.35507848876877496  0.36336871047337027  0.2327478678713499  1.0000
  C   C2        1.0  0.6449215118564865  0.6366312890045718  0.7672521328027058  1.0000
  C   C3        1.0  0.4255682030529081  0.2584562666766122  0.23510679536903598  1.0000
  C   C4        1.0  0.5744317967701252  0.7415437338030237  0.7648932043710153  1.0000
  C   C5        1.0  0.7981248082635071  0.3319487863280159  0.4502556397711232  1.0000
  C   C6        1.0  0.20187519155178227  0.6680512141452132  0.549744360874655  1.0000
  C   C7        1.0  0.8184448369555088  0.4704448311060175  0.5090394782337636  1.0000
  C   C8        1.0  0.18155516261441826  0.5295551683725758  0.4909605221240607  1.0000
  C   C9        1.0  0.7072056387996531  0.5328535826549237  0.4671673198544214  1.0000
  C   C10       1.0  0.29279436101563616  0.4671464178183054  0.5328326807913567  1.0000
  C   C11       1.0  0.5762024472907403  0.45408374577932265  0.36976949139446924  1.0000
  C   C12       1.0  0.4237975535876274  0.5459162546996619  0.6302305086618133  1.0000
  C   C13       1.0  0.3686258236626093  0.11707347995117562  0.16936689583337936  1.0000
  C   C14       1.0  0.6313741761526801  0.8829265205220533  0.8306331048123987  1.0000
  C   C15       1.0  0.45563283493432477  0.030245910823677117  0.1399500631742161  1.0000
  C   C16       1.0  0.5443671648887086  0.9697540896559588  0.8600499365658352  1.0000
  C   C17       1.0  0.393327869044807  0.8978675399942052  0.06744200507064053  1.0000
  C   C18       1.0  0.6066721318258168  0.1021324604783726  0.932557995891369  1.0000
  C   C19       1.0  0.2440683781861886  0.8504130570080912  0.026139239147530302  1.0000
  C   C20       1.0  0.7559316216368448  0.14958694347154483  0.9738607605925209  1.0000
  C   C21       1.0  0.15643760628915968  0.9330330588922982  0.06076829468031406  1.0000
  C   C22       1.0  0.8435623932807673  0.0669669405862951  0.9392317056775102  1.0000
  C   C23       1.0  0.21891040626419944  0.0655679703126229  0.13146104797853417  1.0000
  C   C24       1.0  0.7810895946064242  0.9344320301599548  0.8685389529834753  1.0000
  C   C25       1.0  0.17286298936054723  0.5981156079122945  0.05563687626094684  1.0000
  C   C26       1.0  0.8271370102093799  0.4018843915662988  0.9443631240968776  1.0000
  C   C27       1.0  0.9172237941815733  0.26290312196327686  0.48841688163148783  1.0000
  C   C28       1.0  0.08277620539609766  0.7370968775217234  0.5115831178206097  1.0000
  C   C29       1.0  0.9995317388362405  0.28296930258383707  0.6237026279749419  1.0000
  C   C30       1.0  0.0004682609790488158  0.7170306978893919  0.37629737267083624  1.0000
  C   C31       1.0  0.11072360699882214  0.21581032952570028  0.6569711891440434  1.0000
  C   C32       1.0  0.8892763928242112  0.7841896709539357  0.34302881059600776  1.0000
  C   C33       1.0  0.14539964877919342  0.13398576548468608  0.5590255394021569  1.0000
  C   C34       1.0  0.8546003510360959  0.8660142349885429  0.4409744612436211  1.0000
  C   C35       1.0  0.0643825862717235  0.11647014767144365  0.42456973632574124  1.0000
  C   C36       1.0  0.935617414361282  0.8835298518129052  0.5754302634425875  1.0000
  C   C37       1.0  0.9488858438730968  0.1778899212529073  0.3892480145335622  1.0000
  C   C38       1.0  0.051114155704574206  0.8221100782320928  0.6107519849185353  1.0000
  C   C39       1.0  0.3659196120035115  0.3574214217971009  0.8720874299368734  1.0000
  C   C40       1.0  0.6340803875741596  0.6425785776878993  0.12791256951522412  1.0000
  C   C41       1.0  0.43654085483042365  0.9418343950351195  0.4568397418296302  1.0000
  C   C42       1.0  0.5634591447472475  0.05816560444988062  0.5431602576224671  1.0000
  C   C43       1.0  0.4797386394171788  0.8101499476013139  0.4440620323050317  1.0000
  C   C44       1.0  0.5202613614534449  0.18985005287126389  0.5559379686569776  1.0000
  N   N1        1.0  0.4467133238510001  0.4813625169954416  0.31339211358330893  1.0000
  N   N2        1.0  0.5532866759720334  0.5186374834841944  0.6866078861567422  1.0000
  N   N3        1.0  0.5669043212317161  0.3180035293229421  0.3214281159974961  1.0000
  N   N4        1.0  0.43309567964665185  0.6819964711560426  0.6785718840587863  1.0000
  N   N5        1.0  0.674914793085523  0.2555661855048303  0.35804140841666515  1.0000
  N   N6        1.0  0.32508520649214795  0.7444338139801698  0.6419585910354323  1.0000
  O   O1        1.0  0.01587621813767826  0.6695204039174839  0.8495794389188768  1.0000
  O   O2        1.0  0.9841237816776113  0.33047959655574516  0.15042056172690135  1.0000
  O   O3        1.0  0.2629004947714308  0.6360107137899251  0.8655159385649379  1.0000
  O   O4        1.0  0.7370995058615747  0.36398928569442374  0.13448406120339082  1.0000
  O   O5        1.0  0.12179268971965805  0.27971286807656076  0.9044893815356831  1.0000
  O   O6        1.0  0.8782073101033754  0.7202871324030751  0.09551061820436799  1.0000
  O   O7        1.0  0.2526849240539934  0.10731193859285473  0.8376719330682548  1.0000
  O   O8        1.0  0.7473150757690399  0.8926880618867812  0.1623280666717963  1.0000
  O   O9        1.0  0.6003830991039608  0.797251272720159  0.5095423923416443  1.0000
  O   O10       1.0  0.3996169004737103  0.2027487267648411  0.49045760711045305  1.0000
  O   O11       1.0  0.37362520298164753  0.7094006755672847  0.35583529651497253  1.0000
  O   O12       1.0  0.6263747968413859  0.29059932491235124  0.6441647032250787  1.0000
  S   S1        1.0  0.16647129927027907  0.6818522167563568  0.9318690537629111  1.0000
  S   S2        1.0  0.8335287003073921  0.3181477827286434  0.06813094568918658  1.0000
  S   S3        1.0  0.20818742938840334  0.23088616264046716  0.8280597184781098  1.0000
  S   S4        1.0  0.7918125712446021  0.7691138368438817  0.17194028129021896  1.0000
