data_image0
_chemical_formula_structural       H40C60N8S2Br2
_chemical_formula_sum              "H40 C60 N8 S2 Br2"
_cell_length_a       9.38206475340954
_cell_length_b       9.993500655691285
_cell_length_c       13.628143855139783
_cell_angle_alpha    74.31653345779499
_cell_angle_beta     87.06410863180109
_cell_angle_gamma    75.18467599386847

_space_group_name_H-M_alt    "P 1"
_space_group_IT_number       1

loop_
  _space_group_symop_operation_xyz
  'x, y, z'

loop_
  _atom_site_type_symbol
  _atom_site_label
  _atom_site_symmetry_multiplicity
  _atom_site_fract_x
  _atom_site_fract_y
  _atom_site_fract_z
  _atom_site_occupancy
  H   H1        1.0  0.033964716991422124  0.25843186845894983  0.43061587670554907  1.0000
  H   H2        1.0  0.9660352831953881  0.7415681321263317  0.5693841231957122  1.0000
  H   H3        1.0  0.05188007415269254  0.026468011993210867  0.39110956955889353  1.0000
  H   H4        1.0  0.9481199263182534  0.9735319875565083  0.6088904303437142  1.0000
  H   H5        1.0  0.8329395861240709  0.9857981158067533  0.3162886979959118  1.0000
  H   H6        1.0  0.16706041434687496  0.014201883742965937  0.6837113019066959  1.0000
  H   H7        1.0  0.6029959868843244  0.18247171202422582  0.27544255176149784  1.0000
  H   H8        1.0  0.3970040133024857  0.8175282885610557  0.7245574481397633  1.0000
  H   H9        1.0  0.5869073842814153  0.4145986414905179  0.3136676279861052  1.0000
  H   H10       1.0  0.4130926161895306  0.5854013580592012  0.6863323719165025  1.0000
  H   H11       1.0  0.5190412897658331  0.40415597083338856  0.5715075667301691  1.0000
  H   H12       1.0  0.48095871070511276  0.5958440287163305  0.4284924331724387  1.0000
  H   H13       1.0  0.500654422609166  0.21772425533999717  0.7304546724507486  1.0000
  H   H14       1.0  0.4993455768145585  0.7822757439240192  0.26954532821228727  1.0000
  H   H15       1.0  0.7249876582228313  0.08695033788289361  0.8415012048301966  1.0000
  H   H16       1.0  0.2750123422662249  0.9130496613825472  0.15849879583469922  1.0000
  H   H17       1.0  0.9685443390155601  0.12777931526859318  0.7834273202980192  1.0000
  H   H18       1.0  0.031455661189360315  0.8722206850324102  0.21657268036553037  1.0000
  H   H19       1.0  0.9883970011615665  0.30756346871064655  0.6204944542821103  1.0000
  H   H20       1.0  0.011602997959911916  0.692436531873211  0.37950554561729083  1.0000
  H   H21       1.0  0.6631752223700007  0.9216318737092851  0.46649108879459644  1.0000
  H   H22       1.0  0.33682477703561337  0.07836812583900973  0.5335089111061511  1.0000
  H   H23       1.0  0.6181253056399545  0.05653860278139455  0.5980274942523974  1.0000
  H   H24       1.0  0.3818746945468555  0.943461397803887  0.40197250564886394  1.0000
  H   H25       1.0  0.6363123287958149  0.9250486179774104  0.7821004433607781  1.0000
  H   H26       1.0  0.36368767167513094  0.07495138157230871  0.2178995565418296  1.0000
  H   H27       1.0  0.6906693854317749  0.6569563927319486  0.8332050553193268  1.0000
  H   H28       1.0  0.30933061370781395  0.34304360756763036  0.16679494534236264  1.0000
  H   H29       1.0  0.7380131244644845  0.5233351151033634  0.7027255389845548  1.0000
  H   H30       1.0  0.26198687600646137  0.47666488444635563  0.29727446091805293  1.0000
  H   H31       1.0  0.0711552288156912  0.5226314426829017  0.06396514018587023  1.0000
  H   H32       1.0  0.9288447703238976  0.47736855761667735  0.9360348604758191  1.0000
  H   H33       1.0  0.9869854874194972  0.4530790513605033  0.23763960935884698  1.0000
  H   H34       1.0  0.01301451200422702  0.5469209479035133  0.7623603913041888  1.0000
  H   H35       1.0  0.5194058762273321  0.625539517723708  0.13174030454415167  1.0000
  H   H36       1.0  0.48059412395947804  0.3744604828615737  0.8682596953571097  1.0000
  H   H37       1.0  0.2800298219191085  0.6748193198223038  0.04131768576244996  1.0000
  H   H38       1.0  0.719970178285812  0.32518068047869936  0.9586823149010997  1.0000
  H   H39       1.0  0.26088623204163475  0.5499963252281823  0.90926956650687  1.0000
  H   H40       1.0  0.7391137673639793  0.4500036743201127  0.09073043339387753  1.0000
  C   C1        1.0  0.7637854872094479  0.49284702581983403  0.4999873267448819  1.0000
  C   C2        1.0  0.236214513261498  0.507152973729885  0.5000126731577259  1.0000
  C   C3        1.0  0.7390822894984854  0.6388205684171329  0.4939523037732381  1.0000
  C   C4        1.0  0.26091770990712865  0.361179431131162  0.5060476961275094  1.0000
  C   C5        1.0  0.7889437907691949  0.6178179734482009  0.33997820099350917  1.0000
  C   C6        1.0  0.2110562094176152  0.3821820271370808  0.6600217989077521  1.0000
  C   C7        1.0  0.8098640163371589  0.34928227339760803  0.37380256931635547  1.0000
  C   C8        1.0  0.19013598384965136  0.6507177271876735  0.6261974305849058  1.0000
  C   C9        1.0  0.9404745094745274  0.24093563916355729  0.3962133034230144  1.0000
  C   C10       1.0  0.0595254907122828  0.7590643614217243  0.6037866964782469  1.0000
  C   C11       1.0  0.9497724207030811  0.11072740828303956  0.37386539290434495  1.0000
  C   C12       1.0  0.05022757978597522  0.8892725909824012  0.626134607760551  1.0000
  C   C13       1.0  0.8284948542334972  0.0890656112670385  0.330491171655377  1.0000
  C   C14       1.0  0.17150514623744859  0.9109343882826806  0.6695088282472308  1.0000
  C   C15       1.0  0.6987461878167149  0.1987861617097722  0.30789579947360385  1.0000
  C   C16       1.0  0.30125381237009513  0.8012138388755095  0.6921042004276575  1.0000
  C   C17       1.0  0.6886856000744261  0.3295516928625304  0.32938573118766373  1.0000
  C   C18       1.0  0.31131440039651953  0.6704483066871887  0.6706142687149439  1.0000
  C   C19       1.0  0.7545132185498973  0.3711487454281378  0.5872476609256697  1.0000
  C   C20       1.0  0.2454867816369129  0.6288512551571438  0.4127523389755916  1.0000
  C   C21       1.0  0.6174433599888625  0.3442461874239638  0.6182644072878606  1.0000
  C   C22       1.0  0.38255663943486184  0.6557538118400529  0.38173559337517515  1.0000
  C   C23       1.0  0.6068698141783708  0.24105095517302125  0.7086486422706356  1.0000
  C   C24       1.0  0.39313018494310764  0.7589490454108362  0.2913513576287654  1.0000
  C   C25       1.0  0.7325042795124557  0.16506221444059788  0.7693382446898953  1.0000
  C   C26       1.0  0.26749572067435445  0.8349377861446836  0.230661755211366  1.0000
  C   C27       1.0  0.8698582784503265  0.18838627426148677  0.7370753167115661  1.0000
  C   C28       1.0  0.13014172203872965  0.811613725003954  0.26292468395332985  1.0000
  C   C29       1.0  0.8812830408790814  0.2896067222486937  0.6458141018048587  1.0000
  C   C30       1.0  0.11871695930772892  0.7103932783365879  0.35418589809640255  1.0000
  C   C31       1.0  0.7047591180700645  0.7132670220894437  0.574544625053295  1.0000
  C   C32       1.0  0.2952408810514139  0.2867329784944137  0.425455374846106  1.0000
  C   C33       1.0  0.6692575275451502  0.8643908551754478  0.5469927261596909  1.0000
  C   C34       1.0  0.33074247292579556  0.1356091443742715  0.45300727374291694  1.0000
  C   C35       1.0  0.6445617340252786  0.9396146361576818  0.6211030949601088  1.0000
  C   C36       1.0  0.3554382664456672  0.06038536339203722  0.37889690494249895  1.0000
  C   C37       1.0  0.6538607288507058  0.8658104994526024  0.7244117562019404  1.0000
  C   C38       1.0  0.3461392705549082  0.13418950009569247  0.2755882436988071  1.0000
  C   C39       1.0  0.6859701961297527  0.7159472774113679  0.7528801940539432  1.0000
  C   C40       1.0  0.3140298040570574  0.28405272317391356  0.24711980584731796  1.0000
  C   C41       1.0  0.7112287445302135  0.6400867619646134  0.6789027672229394  1.0000
  C   C42       1.0  0.2887712545912648  0.35991323861924385  0.32109723267646173  1.0000
  C   C43       1.0  0.8292852973163869  0.6530082802688756  0.23328942228031377  1.0000
  C   C44       1.0  0.17071470315455883  0.34699171928084355  0.7667105776222941  1.0000
  C   C45       1.0  0.7696593845200477  0.7938069492888549  0.1679188356851144  1.0000
  C   C46       1.0  0.2303406148855663  0.2061930502594401  0.832081164215633  1.0000
  C   C47       1.0  0.8194187809359668  0.8349641557160572  0.06407450573612979  1.0000
  C   C48       1.0  0.18058121846964734  0.16503584383223788  0.9359254941646177  1.0000
  C   C49       1.0  0.929944106731987  0.7358474791741956  0.02665631604136481  1.0000
  C   C50       1.0  0.0700558937389588  0.26415252037552367  0.9733436838612429  1.0000
  C   C51       1.0  0.9848810814301061  0.6004539628675087  0.09021925204169037  1.0000
  C   C52       1.0  0.01511891875670404  0.399546037717773  0.9097807478595709  1.0000
  C   C53       1.0  0.9347990505403331  0.5601275737919762  0.191062787912784  1.0000
  C   C54       1.0  0.06520094993061289  0.43987242575774294  0.8089372119898238  1.0000
  C   C55       1.0  0.5111761647977786  0.5709694905286813  0.07369088218648107  1.0000
  C   C56       1.0  0.4888238346078354  0.42903050901961365  0.9263091177142664  1.0000
  C   C57       1.0  0.37653093815892275  0.5982489760741388  0.023181578635369585  1.0000
  C   C58       1.0  0.6234690623120229  0.4017510234755803  0.9768184212672383  1.0000
  C   C59       1.0  0.3654633318680651  0.5273133418966945  0.9494714217251182  1.0000
  C   C60       1.0  0.634536667537549  0.4726866576516003  0.05052857817562926  1.0000
  N   N1        1.0  0.7961448248794082  0.4805182120122213  0.4019094283755652  1.0000
  N   N2        1.0  0.20385517530740183  0.5194817885730605  0.5980905715256961  1.0000
  N   N3        1.0  0.7552650500572144  0.7131693709767494  0.3947886940477767  1.0000
  N   N4        1.0  0.24473494906426396  0.2868306296071081  0.6052113058516243  1.0000
  N   N5        1.0  0.6643743487745872  0.9007485229710412  0.19110890252571416  1.0000
  N   N6        1.0  0.33562565063102684  0.09925147657725372  0.8088910973750334  1.0000
  N   N7        1.0  0.7511792712018517  0.9702759355209872  0.012439098234056485  1.0000
  N   N8        1.0  0.24882072900306876  0.02972406478001593  0.9875609024294931  1.0000
  S   S1        1.0  0.6363237087699497  0.03500477158671139  0.09079524084285412  1.0000
  S   S2        1.0  0.3636762903515288  0.964995228997146  0.909204759056547  1.0000
  Br  Br1       1.0  0.9980437732059125  0.7933375208710294  0.892535065505939  1.0000
  Br  Br2       1.0  0.0019562262178118507  0.20666247839298718  0.10746493515709682  1.0000
