data_image0
_chemical_formula_structural       H18C16N10O10S2
_chemical_formula_sum              "H18 C16 N10 O10 S2"
_cell_length_a       4.716386445749261
_cell_length_b       11.450495000151069
_cell_length_c       11.420022895579224
_cell_angle_alpha    95.76316439305316
_cell_angle_beta     99.0378080520626
_cell_angle_gamma    101.5011546260681

_space_group_name_H-M_alt    "P 1"
_space_group_IT_number       1

loop_
  _space_group_symop_operation_xyz
  'x, y, z'

loop_
  _atom_site_type_symbol
  _atom_site_label
  _atom_site_symmetry_multiplicity
  _atom_site_fract_x
  _atom_site_fract_y
  _atom_site_fract_z
  _atom_site_occupancy
  H   H1        1.0  0.25393986628604703  0.40673548501054935  0.4439949911139559  1.0000
  H   H2        1.0  0.7460601337631765  0.5932645155450754  0.5560050089596563  1.0000
  H   H3        1.0  0.3716077118312483  0.550350947016217  0.11239298266635746  1.0000
  H   H4        1.0  0.6283922882179753  0.449649053539408  0.8876070174072548  1.0000
  H   H5        1.0  0.8475848384722106  0.16681823105388108  0.19551387716049026  1.0000
  H   H6        1.0  0.1524151615770129  0.8331817695017436  0.8044861229131219  1.0000
  H   H7        1.0  0.8202755359740693  0.7672503623777627  0.1122907052090749  1.0000
  H   H8        1.0  0.1797244636584256  0.23274963728708856  0.8877092948676306  1.0000
  H   H9        1.0  0.8307462393539821  0.8811121615557228  0.01572674983579184  1.0000
  H   H10       1.0  0.16925376027851277  0.11888783810912829  0.9842732502409137  1.0000
  H   H11       1.0  0.6024722829548913  0.8790721004755588  0.12995994376221195  1.0000
  H   H12       1.0  0.39752771667760356  0.1209278991892922  0.8700400563144935  1.0000
  H   H13       1.0  0.7850531039791309  0.9440326888307514  0.3467011613048849  1.0000
  H   H14       1.0  0.21494689607009274  0.05596731172487342  0.6532988387687274  1.0000
  H   H15       1.0  0.16682827773153933  0.9766455965857844  0.4183964595549757  1.0000
  H   H16       1.0  0.8331717215049445  0.023354402953542058  0.5816035396267437  1.0000
  H   H17       1.0  0.9905006519498284  0.8266631851078923  0.350464056232031  1.0000
  H   H18       1.0  0.00949934770338397  0.17333681532220788  0.649535942946595  1.0000
  C   C1        1.0  0.49314022442305844  0.31441314009432847  0.3346968120794404  1.0000
  C   C2        1.0  0.5068597752094365  0.6855868595705227  0.6653031879972652  1.0000
  C   C3        1.0  0.3447516194644045  0.40345915981420116  0.3621192453355466  1.0000
  C   C4        1.0  0.6552483801680904  0.59654083985065  0.6378807547411589  1.0000
  C   C5        1.0  0.3095907814147035  0.487743645172157  0.2823373300685302  1.0000
  C   C6        1.0  0.6904092178217802  0.5122563543671694  0.7176626691131892  1.0000
  C   C7        1.0  0.41162737770592944  0.4863259973294862  0.17458111074101143  1.0000
  C   C8        1.0  0.5883726223432941  0.5136740032261385  0.8254188893326008  1.0000
  C   C9        1.0  0.5598089405968288  0.3957967674725383  0.1487622205301745  1.0000
  C   C10       1.0  0.4401910611595604  0.6042032321982054  0.8512377795486937  1.0000
  C   C11       1.0  0.6044755366247967  0.30968659615826727  0.22723441805225672  1.0000
  C   C12       1.0  0.39552446300769817  0.6903134035065838  0.7727655820244488  1.0000
  C   C13       1.0  0.8073888187659511  0.8609575382181407  0.10605042426777017  1.0000
  C   C14       1.0  0.19261118128327226  0.1390424623374841  0.8939495758058419  1.0000
  C   C15       1.0  0.0004080962215150271  0.9223480967510642  0.345104605278396  1.0000
  C   C16       1.0  0.9995919034109798  0.07765190291378692  0.6548953947983096  1.0000
  N   N1        1.0  0.14867887252560566  0.5805312386623873  0.3117451660856093  1.0000
  N   N2        1.0  0.8513211271068892  0.41946876100246383  0.6882548339910962  1.0000
  N   N3        1.0  0.5285694951842962  0.22585190108562497  0.41510381540930935  1.0000
  N   N4        1.0  0.4714305040521875  0.7741480984537015  0.58489618377241  1.0000
  N   N5        1.0  0.7523512474594554  0.2388808908703216  0.17083620364325772  1.0000
  N   N6        1.0  0.24764875217303947  0.7611191087945295  0.8291637964334478  1.0000
  N   N7        1.0  0.7990034425197308  0.2775897223076511  0.06490327042654562  1.0000
  N   N8        1.0  0.2009965571127642  0.7224102773572  0.9350967296501599  1.0000
  N   N9        1.0  0.6847639194351839  0.37056907678412726  0.05034570301476113  1.0000
  N   N10       1.0  0.315236080197311  0.6294309228807239  0.9496542970619445  1.0000
  O   O1        1.0  0.03763481996349336  0.5768250036120367  0.40337558325041295  1.0000
  O   O2        1.0  0.9623651796690014  0.4231749960528144  0.5966244168262924  1.0000
  O   O3        1.0  0.12982915379942853  0.6567944484986731  0.24278424998763531  1.0000
  O   O4        1.0  0.8701708458537838  0.343205551931427  0.7572157491909907  1.0000
  O   O5        1.0  0.4068506537039454  0.226572425961415  0.5036754252305496  1.0000
  O   O6        1.0  0.5931493484691724  0.7734275746001023  0.49632457484522535  1.0000
  O   O7        1.0  0.6811241705052423  0.15349253350880063  0.3887040069422535  1.0000
  O   O8        1.0  0.31887582954398125  0.8465074670468242  0.6112959931313587  1.0000
  O   O9        1.0  0.09315151711113778  0.08449349450512961  0.19451377727889466  1.0000
  O   O10       1.0  0.906848482521357  0.9155065051597214  0.8054862227978108  1.0000
  S   S1        1.0  0.11574101607883534  0.9552989830999647  0.20726545197811883  1.0000
  S   S2        1.0  0.8842589835536596  0.04470101656488633  0.7927345480985868  1.0000
