data_image0
_chemical_formula_structural       H16C34N6F32I4
_chemical_formula_sum              "H16 C34 N6 F32 I4"
_cell_length_a       5.417173015170768
_cell_length_b       12.545296684843146
_cell_length_c       17.139889972577773
_cell_angle_alpha    105.99971026404872
_cell_angle_beta     94.22136582111172
_cell_angle_gamma    90.62233846514219

_space_group_name_H-M_alt    "P 1"
_space_group_IT_number       1

loop_
  _space_group_symop_operation_xyz
  'x, y, z'

loop_
  _atom_site_type_symbol
  _atom_site_label
  _atom_site_symmetry_multiplicity
  _atom_site_fract_x
  _atom_site_fract_y
  _atom_site_fract_z
  _atom_site_occupancy
  H   H1        1.0  0.4085119417285446  0.8690562825521555  0.824159909026976  1.0000
  H   H2        1.0  0.591488058037148  0.13094371709330177  0.1758400907336696  1.0000
  H   H3        1.0  0.5582082761671918  0.08843031098355593  0.8971045204017757  1.0000
  H   H4        1.0  0.4417917237387763  0.9115696888885874  0.10289547996774218  1.0000
  H   H5        1.0  0.05553543252058196  0.36112243897714175  0.8117501186363086  1.0000
  H   H6        1.0  0.9444645672692016  0.6388775614664182  0.18824988112685853  1.0000
  H   H7        1.0  0.3211605012040969  0.24003231344925535  0.8723502253597506  1.0000
  H   H8        1.0  0.6788394985615956  0.759967686196202  0.12764977440089506  1.0000
  H   H9        1.0  0.8738636825915738  0.3176487543661302  0.0780749799518771  1.0000
  H   H10       1.0  0.12613631719820975  0.6823512460774298  0.92192501981129  1.0000
  H   H11       1.0  0.6256665371198181  0.43655188903747105  0.008792315841576718  1.0000
  H   H12       1.0  0.37433346266996537  0.563448111406089  0.9912076839215904  1.0000
  H   H13       1.0  0.46813803144918464  0.22223118421272883  0.02911594707339806  1.0000
  H   H14       1.0  0.5318619684567836  0.7777688156594145  0.9708840532961198  1.0000
  H   H15       1.0  0.2069015701738894  0.19813139127306448  0.08023033745928015  1.0000
  H   H16       1.0  0.7930984314623977  0.8018686091699015  0.9197696623062682  1.0000
  C   C1        1.0  0.09436255978511554  0.995033193833392  0.9715363956468782  1.0000
  C   C2        1.0  0.9056374400046678  0.0049668066101681485  0.028463604116288958  1.0000
  C   C3        1.0  0.33214931571658085  0.9294099262421813  0.8739319057487935  1.0000
  C   C4        1.0  0.6678506841893874  0.0705900736299619  0.12606809462072438  1.0000
  C   C5        1.0  0.4094207501894737  0.03838085923955509  0.909235901967115  1.0000
  C   C6        1.0  0.5905792495762188  0.9616191404059024  0.0907640977935305  1.0000
  C   C7        1.0  0.021560987858541016  0.34966096794459284  0.8709256579925949  1.0000
  C   C8        1.0  0.9784390120715183  0.6503390327256533  0.12907434237944454  1.0000
  C   C9        1.0  0.16955587379005757  0.28198777308304096  0.9053996119344396  1.0000
  C   C10       1.0  0.8304441261159107  0.7180122267891025  0.09460038843507824  1.0000
  C   C11       1.0  0.1187742508522742  0.26860182398833043  0.981081013107391  1.0000
  C   C12       1.0  0.8812257489375094  0.7313981764552295  0.018918986655776  1.0000
  C   C13       1.0  0.9198852606328124  0.3251849426181451  0.019006844595910344  1.0000
  C   C14       1.0  0.08011473913288024  0.6748150570273123  0.9809931551647353  1.0000
  C   C15       1.0  0.7814889483099502  0.39144112252122465  0.9801845304217804  1.0000
  C   C16       1.0  0.21851105147983327  0.6085588779223353  0.01981546934138655  1.0000
  C   C17       1.0  0.2722578516826062  0.19539246993063888  0.02097345548344465  1.0000
  C   C18       1.0  0.7277421480830862  0.8046075297148184  0.9790265442772008  1.0000
  C   C19       1.0  0.31376952783077994  0.5775167725022233  0.7341754320955721  1.0000
  C   C20       1.0  0.6862304720992791  0.4224832281680227  0.2658245682764674  1.0000
  C   C21       1.0  0.453808887018714  0.6223476909716668  0.6727653751146467  1.0000
  C   C22       1.0  0.5461911128872542  0.3776523089004767  0.32723462525487124  1.0000
  C   C23       1.0  0.2810670349196948  0.6543051893400565  0.6051189087986123  1.0000
  C   C24       1.0  0.7189329649862732  0.3456948105320867  0.39488109157090556  1.0000
  C   C25       1.0  0.4134653748446306  0.7207146185522386  0.5536224207556121  1.0000
  C   C26       1.0  0.5865346250613376  0.27928538131990477  0.4463775796139059  1.0000
  C   C27       1.0  0.23806401372508848  0.7510627506532348  0.4856127310054724  1.0000
  C   C28       1.0  0.7619359860646949  0.24893724979032528  0.5143872687576947  1.0000
  C   C29       1.0  0.3811336785281411  0.8020370955008906  0.4266376491155815  1.0000
  C   C30       1.0  0.6188663212616424  0.19796290494266944  0.5733623506475857  1.0000
  C   C31       1.0  0.20932086153586663  0.8602464368104988  0.3736010904605156  1.0000
  C   C32       1.0  0.7906791382539168  0.1397535636330612  0.6263989093026516  1.0000
  C   C33       1.0  0.3405815496189587  0.8941508837217483  0.3052164748114448  1.0000
  C   C34       1.0  0.6594184502870095  0.10584911615039505  0.6947835255580731  1.0000
  N   N1        1.0  0.25891637653148636  0.0798778886214046  0.9710722579955431  1.0000
  N   N2        1.0  0.7410836232342062  0.9201221110240527  0.028927741765102474  1.0000
  N   N3        1.0  0.13818499018585786  0.9029123553367028  0.9132591209169001  1.0000
  N   N4        1.0  0.8618150114263382  0.09708764430816065  0.08674087884612688  1.0000
  N   N5        1.0  0.8302938951082074  0.4035239872821832  0.9074969969459079  1.0000
  N   N6        1.0  0.16970610468157601  0.5964760131613769  0.09250300281725933  1.0000
  F   F1        1.0  0.18423124749907882  0.6626649953432195  0.7804058300494818  1.0000
  F   F2        1.0  0.8157687524309803  0.3373350053270265  0.21959417032255768  1.0000
  F   F3        1.0  0.14530616830417928  0.4961234156157004  0.6921965216393563  1.0000
  F   F4        1.0  0.8546938314615131  0.5038765840297569  0.3078034781212892  1.0000
  F   F5        1.0  0.5948155390039793  0.7131249281443215  0.7174117669964108  1.0000
  F   F6        1.0  0.4051844607617132  0.286875071501136  0.2825882327642348  1.0000
  F   F7        1.0  0.6082212819403396  0.5430175136523624  0.6344312201222235  1.0000
  F   F8        1.0  0.3917787178253529  0.4569824859930948  0.36556877963842205  1.0000
  F   F9        1.0  0.09520388687543711  0.7178758900446354  0.6413762563538309  1.0000
  F   F10       1.0  0.9047961130546222  0.2821241106256107  0.35862374401820857  1.0000
  F   F11       1.0  0.1804709767227104  0.55818042652366  0.5540857986627766  1.0000
  F   F12       1.0  0.8195290230429821  0.4418195731217973  0.44591420109786895  1.0000
  F   F13       1.0  0.5097927482262568  0.8175171037893862  0.6055343746010052  1.0000
  F   F14       1.0  0.49020725153943573  0.1824828958560711  0.39446562515964034  1.0000
  F   F15       1.0  0.6017131869693404  0.6594630722204264  0.5174883518788893  1.0000
  F   F16       1.0  0.3982868129366277  0.34053692765171684  0.48251164849062855  1.0000
  F   F17       1.0  0.07355528242897777  0.8260247783617054  0.523317353135002  1.0000
  F   F18       1.0  0.9264447173608058  0.17397522208185454  0.47668264662816506  1.0000
  F   F19       1.0  0.11038906226219501  0.6583567348273625  0.4394091591816984  1.0000
  F   F20       1.0  0.8896109376437731  0.3416432650447808  0.5605908411878195  1.0000
  F   F21       1.0  0.553788480126891  0.8787566740226539  0.4714288020745546  1.0000
  F   F22       1.0  0.4462115197790772  0.12124332584948948  0.5285711982949632  1.0000
  F   F23       1.0  0.4991770906163704  0.7184590806196584  0.3757857962817412  1.0000
  F   F24       1.0  0.500822909149322  0.28154091902579903  0.6242142034789044  1.0000
  F   F25       1.0  0.12236554683276951  0.953970519419076  0.4234979033821208  1.0000
  F   F26       1.0  0.8776344530731987  0.04602948045306726  0.5765020969873971  1.0000
  F   F27       1.0  0.013398487824582103  0.7898676253579453  0.3373595105873154  1.0000
  F   F28       1.0  0.986601512105477  0.21013237531230078  0.6626404897847241  1.0000
  F   F29       1.0  0.5509924491951412  0.9546630711826659  0.33834138768372957  1.0000
  F   F30       1.0  0.4490075524170548  0.04533692846219748  0.6616586120792974  1.0000
  F   F31       1.0  0.4064686687996517  0.800980442659813  0.24845811101802437  1.0000
  F   F32       1.0  0.5935313311304075  0.19901955801043308  0.7515418893540151  1.0000
  I   I1        1.0  0.5620817809224826  0.5096998752047942  0.8148016698255506  1.0000
  I   I2        1.0  0.43791821900757666  0.490300125465452  0.18519833054648896  1.0000
  I   I3        1.0  0.09656790740914914  0.988844549459356  0.2451992451121359  1.0000
  I   I4        1.0  0.903432092496819  0.011155450412787508  0.754800755257382  1.0000
