data_image0
_chemical_formula_structural       H32C48N12F24I4
_chemical_formula_sum              "H32 C48 N12 F24 I4"
_cell_length_a       5.815058600332047
_cell_length_b       13.057729318835095
_cell_length_c       18.939779755582475
_cell_angle_alpha    77.00527010028763
_cell_angle_beta     88.31037202077655
_cell_angle_gamma    79.52553874459039

_space_group_name_H-M_alt    "P 1"
_space_group_IT_number       1

loop_
  _space_group_symop_operation_xyz
  'x, y, z'

loop_
  _atom_site_type_symbol
  _atom_site_label
  _atom_site_symmetry_multiplicity
  _atom_site_fract_x
  _atom_site_fract_y
  _atom_site_fract_z
  _atom_site_occupancy
  H   H1        1.0  0.6500557685158833  0.3577630486565114  0.2975410193803696  1.0000
  H   H2        1.0  0.3499442312898536  0.6422369513314125  0.7024589803940745  1.0000
  H   H3        1.0  0.01336224035316875  0.2685355620817301  0.24592630637560084  1.0000
  H   H4        1.0  0.9866377594791792  0.7314644377277948  0.7540736939407446  1.0000
  H   H5        1.0  0.21085310637978744  0.3773134004750974  0.14357122859185578  1.0000
  H   H6        1.0  0.7891468934259493  0.6226865995128266  0.8564287711825883  1.0000
  H   H7        1.0  0.6750484173978073  0.6475366949514881  0.1562170402637166  1.0000
  H   H8        1.0  0.3249515841545239  0.35246330485768157  0.8437829600507933  1.0000
  H   H9        1.0  0.2648540688342628  0.5662627145181912  0.08902258757526749  1.0000
  H   H10       1.0  0.7351459309980849  0.43373728529133376  0.9109774127410779  1.0000
  H   H11       1.0  0.04249405493092232  0.5617767462341596  0.028908962191035843  1.0000
  H   H12       1.0  0.9575059466214089  0.4382232535750102  0.971091038123474  1.0000
  H   H13       1.0  0.27873086342606224  0.7301629719173365  0.1299709940774669  1.0000
  H   H14       1.0  0.7212691363796746  0.2698370280705874  0.8700290056969773  1.0000
  H   H15       1.0  0.07398967733899259  0.9413508938278584  0.07245889242693612  1.0000
  H   H16       1.0  0.9260103221775433  0.05864910676048106  0.9275411078893876  1.0000
  H   H17       1.0  0.4020070895309854  0.5568998468659392  0.9400951592808304  1.0000
  H   H18       1.0  0.5979929103013626  0.4431001529435857  0.059904841035514945  1.0000
  H   H19       1.0  0.23663525572880975  0.7682843605505929  0.8700979605887346  1.0000
  H   H20       1.0  0.7633647440769272  0.23171563943733106  0.1299020391857096  1.0000
  H   H21       1.0  0.4566740949362586  0.9434209117700375  0.9681077213236057  1.0000
  H   H22       1.0  0.5433259048960892  0.056579088039487455  0.03189227899273987  1.0000
  H   H23       1.0  0.2606409644216237  0.9366899623288355  0.9002741676580892  1.0000
  H   H24       1.0  0.7393590353841132  0.0633100376590884  0.09972583211635495  1.0000
  H   H25       1.0  0.8749646783184833  0.8255886916185691  0.870970648251501  1.0000
  H   H26       1.0  0.12503532117144164  0.1744113091481693  0.12902935152292164  1.0000
  H   H27       1.0  0.996890616891285  0.08662923855284353  0.7140796358405905  1.0000
  H   H28       1.0  0.003109382941062797  0.9133707612566814  0.28592036447575475  1.0000
  H   H29       1.0  0.6144653033271135  0.19510026522837404  0.737491528329992  1.0000
  H   H30       1.0  0.3855346964786234  0.80489973475955  0.26250847144445216  1.0000
  H   H31       1.0  0.35524891723246066  0.11261410101706087  0.8344207449690766  1.0000
  H   H32       1.0  0.6447510825998871  0.8873858987924641  0.1655792553472689  1.0000
  C   C1        1.0  0.9519700463026665  0.6363700907252499  0.3537201166372025  1.0000
  C   C2        1.0  0.04802995350307055  0.36362990926267413  0.6462798831372416  1.0000
  C   C3        1.0  0.0014477751513530673  0.6799287872867583  0.42079126517010557  1.0000
  C   C4        1.0  0.9985522246543839  0.32007121270116556  0.5792087346043386  1.0000
  C   C5        1.0  0.7797374673980793  0.7227111474850487  0.46264745681107783  1.0000
  C   C6        1.0  0.22026253415425182  0.2772888523241212  0.537352543503432  1.0000
  C   C7        1.0  0.8334085110356366  0.7843002686736722  0.5210318657888416  1.0000
  C   C8        1.0  0.16659148879671126  0.21569973113585297  0.47896813452750364  1.0000
  C   C9        1.0  0.6260489957469288  0.8021082684231432  0.575084810769182  1.0000
  C   C10       1.0  0.37395100405880816  0.1978917315647808  0.4249151890052622  1.0000
  C   C11       1.0  0.6386574487813306  0.8899131114235962  0.6179659841004171  1.0000
  C   C12       1.0  0.3613425510510173  0.11008688838592873  0.38203401621592825  1.0000
  C   C13       1.0  0.7406228206382038  0.4015829451967137  0.2528569407063498  1.0000
  C   C14       1.0  0.2593771791675331  0.5984170547912102  0.7471430590680943  1.0000
  C   C15       1.0  0.942202102197371  0.35229326275644685  0.22366965386216864  1.0000
  C   C16       1.0  0.057797897608365935  0.6477067372314772  0.7763303459122756  1.0000
  C   C17       1.0  0.05059931475707064  0.4126058179324371  0.16697679095503548  1.0000
  C   C18       1.0  0.9494006850486663  0.5873941820554867  0.8330232088194087  1.0000
  C   C19       1.0  0.9557457946582985  0.5206244389832246  0.1408252941687082  1.0000
  C   C20       1.0  0.04425420517404949  0.4793755608263002  0.8591747061476372  1.0000
  C   C21       1.0  0.7538611249936416  0.5632059304816639  0.17346522277277465  1.0000
  C   C22       1.0  0.2461388748120954  0.4367940695062601  0.8265347770016694  1.0000
  C   C23       1.0  0.07525515640397074  0.5846943264863779  0.07943429982059996  1.0000
  C   C24       1.0  0.9247448434017662  0.415305673501546  0.9205656999538441  1.0000
  C   C25       1.0  0.12989153608204518  0.7644426923642054  0.09392666717797162  1.0000
  C   C26       1.0  0.8701084637503026  0.23555730744531966  0.9060733331383738  1.0000
  C   C27       1.0  0.022265006897558316  0.8682135859165815  0.06583499810229769  1.0000
  C   C28       1.0  0.9777349946547729  0.13178641389258813  0.9341650022122121  1.0000
  C   C29       1.0  0.8248078332672261  0.7668345286364024  0.0256666706633044  1.0000
  C   C30       1.0  0.1751921665651219  0.23316547117312256  0.9743333296530411  1.0000
  C   C31       1.0  0.6547119022378823  0.7299604260833858  0.9878274038834071  1.0000
  C   C32       1.0  0.34528809759446544  0.2700395737261391  0.012172596432938209  1.0000
  C   C33       1.0  0.45850113086556266  0.6295361061208079  0.9458544863999531  1.0000
  C   C34       1.0  0.5414988689667852  0.37046389368871696  0.05414551391639238  1.0000
  C   C35       1.0  0.3699613470932943  0.7334229394086343  0.9115087655208615  1.0000
  C   C36       1.0  0.6300386527124424  0.26657706057928965  0.0884912342535827  1.0000
  C   C37       1.0  0.4430590791317493  0.9134169601796102  0.9190910585303943  1.0000
  C   C38       1.0  0.5569409207005988  0.08658303962991468  0.08090894178595108  1.0000
  C   C39       1.0  0.5980317209182752  0.9630174594588093  0.8612571870686557  1.0000
  C   C40       1.0  0.4019682788874617  0.03698254052911457  0.13874281270578845  1.0000
  C   C41       1.0  0.8135935077667699  0.9085682480321441  0.8432512012148954  1.0000
  C   C42       1.0  0.186406492038967  0.09143175195577999  0.1567487985595487  1.0000
  C   C43       1.0  0.8807865187315771  0.05342266294762223  0.7558343013888577  1.0000
  C   C44       1.0  0.11921348107415979  0.9465773370403016  0.24416569838558644  1.0000
  C   C45       1.0  0.6673987829838837  0.11397773034568061  0.7692668102390121  1.0000
  C   C46       1.0  0.33260121684846417  0.8860222694638442  0.23073319007733334  1.0000
  C   C47       1.0  0.5247276119229379  0.06831127729836987  0.8228943408850099  1.0000
  C   C48       1.0  0.47527238788279896  0.931688722689554  0.1771056588894343  1.0000
  N   N1        1.0  0.6485987711797359  0.5049599993906106  0.2279901171551317  1.0000
  N   N2        1.0  0.3514012286260009  0.4950400005973134  0.7720098826193125  1.0000
  N   N3        1.0  0.005505407076840608  0.7000993214496599  0.06795970829981779  1.0000
  N   N4        1.0  0.9944945944488797  0.29990067853790875  0.9320402914727908  1.0000
  N   N5        1.0  0.8334088788837826  0.8693076627688969  0.023655072656017725  1.0000
  N   N6        1.0  0.1665911226419375  0.13069233721867193  0.9763449271165909  1.0000
  N   N7        1.0  0.6347994849197084  0.6277019796535  0.9932707347570722  1.0000
  N   N8        1.0  0.36520051457021663  0.3722980211132381  0.006729265017350415  1.0000
  N   N9        1.0  0.49301189248298954  0.7970588706234245  0.9386711683404417  1.0000
  N   N10       1.0  0.5069881073227472  0.20294112936449948  0.0613288314340024  1.0000
  N   N11       1.0  0.9541130308547687  0.9521426744102227  0.792039835748817  1.0000
  N   N12       1.0  0.045886968977579184  0.04785732539930211  0.20796016456752842  1.0000
  F   F1        1.0  0.8160812507826775  0.7165754756633461  0.3040929894164208  1.0000
  F   F2        1.0  0.1839187487338586  0.2834245249249933  0.6959070108999029  1.0000
  F   F3        1.0  0.8265053228719909  0.5561658071823887  0.3760250533856055  1.0000
  F   F4        1.0  0.17349467696035695  0.4438341926271362  0.62397494693074  1.0000
  F   F5        1.0  0.12209301988822983  0.7623613278460619  0.39757518056138685  1.0000
  F   F6        1.0  0.87790698163749  0.237638672141507  0.6024248192112216  1.0000
  F   F7        1.0  0.14020112293916454  0.5993921891555565  0.4676860116921281  1.0000
  F   F8        1.0  0.8597988768931834  0.40060781065396844  0.5323139886242173  1.0000
  F   F9        1.0  0.6237781874892006  0.7911716050584539  0.4135454405959354  1.0000
  F   F10       1.0  0.3762218123165364  0.2088283949294701  0.5864545591785087  1.0000
  F   F11       1.0  0.679313465564885  0.6381463484644789  0.49634603015587025  1.0000
  F   F12       1.0  0.32068653392504004  0.3618536523022596  0.5036539696185522  1.0000
  F   F13       1.0  0.8821969520432682  0.8810397187251632  0.48571636754912323  1.0000
  F   F14       1.0  0.11780304747326774  0.11896028186317617  0.5142836327672006  1.0000
  F   F15       1.0  0.025176748722594393  0.7271934749855111  0.5609427190530304  1.0000
  F   F16       1.0  0.9748232510831426  0.27280652500241265  0.43905728072141365  1.0000
  F   F17       1.0  0.4186391826509139  0.8283386625754364  0.5380642168400841  1.0000
  F   F18       1.0  0.5813608189014173  0.17166133723373322  0.46193578347442577  1.0000
  F   F19       1.0  0.6305382166744338  0.707040341579953  0.6242718854442363  1.0000
  F   F20       1.0  0.36946178315791417  0.2929596582295719  0.3757281148721091  1.0000
  F   F21       1.0  0.6143352757725036  0.987313166459329  0.5718160475300096  1.0000
  F   F22       1.0  0.38566472403323326  0.012686833528595072  0.42818395224443456  1.0000
  F   F23       1.0  0.8559914683512321  0.8689420614456227  0.6495733267655042  1.0000
  F   F24       1.0  0.14400853145450482  0.13105793854230116  0.35042667300894  1.0000
  I   I1        1.0  0.27270974663984654  0.5788984357829117  0.2997168808355573  1.0000
  I   I2        1.0  0.7272902531658904  0.4211015642050124  0.700283118938887  1.0000
  I   I3        1.0  0.36818096186065447  0.8944627003788911  0.7000202455280926  1.0000
  I   I4        1.0  0.6318190379450824  0.10553729960903283  0.2999797542463515  1.0000
