data_image0
_chemical_formula_structural       H16C30N6F24I4
_chemical_formula_sum              "H16 C30 N6 F24 I4"
_cell_length_a       5.502467779964312
_cell_length_b       12.303959472687401
_cell_length_c       14.736252293523089
_cell_angle_alpha    100.74421489657183
_cell_angle_beta     94.90567299333944
_cell_angle_gamma    92.39454143718913

_space_group_name_H-M_alt    "P 1"
_space_group_IT_number       1

loop_
  _space_group_symop_operation_xyz
  'x, y, z'

loop_
  _atom_site_type_symbol
  _atom_site_label
  _atom_site_symmetry_multiplicity
  _atom_site_fract_x
  _atom_site_fract_y
  _atom_site_fract_z
  _atom_site_occupancy
  H   H1        1.0  0.029583432658767245  0.3834733697839198  0.7847272619657788  1.0000
  H   H2        1.0  0.9704165658328963  0.6165266303173259  0.21527273824010165  1.0000
  H   H3        1.0  0.30047185916972097  0.2590137186005649  0.8554533980625402  1.0000
  H   H4        1.0  0.6995281409722434  0.7409862813481332  0.14454660145164905  1.0000
  H   H5        1.0  0.8811784189096086  0.31228746604423935  0.09282968317354479  1.0000
  H   H6        1.0  0.11882158132429722  0.687712533243716  0.9071703170305798  1.0000
  H   H7        1.0  0.6264618743170804  0.43551932330717796  0.01211833422850513  1.0000
  H   H8        1.0  0.37353812417458315  0.5644806767940678  0.9878816659773754  1.0000
  H   H9        1.0  0.4623504310121365  0.230809658040003  0.036458149353012954  1.0000
  H   H10       1.0  0.5376495692974724  0.769190342062285  0.9635418508550109  1.0000
  H   H11       1.0  0.20903947126689462  0.19367758837792295  0.09458224157459949  1.0000
  H   H12       1.0  0.7909605288750696  0.806322411570775  0.9054177579395897  1.0000
  H   H13       1.0  0.40800356385007447  0.8929624143361558  0.804831915257086  1.0000
  H   H14       1.0  0.5919964364595346  0.10703758576613205  0.19516808495093782  1.0000
  H   H15       1.0  0.5601915436423918  0.10946760766848791  0.8898163234256388  1.0000
  H   H16       1.0  0.43980845666721724  0.8905323924338001  0.11018367678238501  1.0000
  C   C1        1.0  0.002881885253576651  0.36586131113830145  0.85312637164012  1.0000
  C   C2        1.0  0.9971181150560323  0.6341386889639864  0.14687362856790384  1.0000
  C   C3        1.0  0.15405530259715663  0.29650430868030647  0.8933043929761454  1.0000
  C   C4        1.0  0.8459446977124524  0.7034956914219814  0.10669560723187839  1.0000
  C   C5        1.0  0.1128899902454401  0.27547014239022616  0.9809906842621519  1.0000
  C   C6        1.0  0.8871100100641689  0.7245298577120619  0.019009315945871828  1.0000
  C   C7        1.0  0.9197358986632276  0.326230589335333  0.024566722477631  1.0000
  C   C8        1.0  0.08026410164638152  0.673769410766955  0.9754332777303929  1.0000
  C   C9        1.0  0.7775815485288703  0.39465973087456807  0.9793068591566295  1.0000
  C   C10       1.0  0.22241844996279309  0.6053402692266777  0.02069314104925101  1.0000
  C   C11       1.0  0.27031272979788634  0.19952472851875103  0.026919129092982864  1.0000
  C   C12       1.0  0.7296872705117227  0.8004752715835369  0.9730808711150409  1.0000
  C   C13       1.0  0.09484811200868153  0.9995799899757304  0.9688976863801805  1.0000
  C   C14       1.0  0.9051518883009276  0.0004200101265576783  0.031102313827843262  1.0000
  C   C15       1.0  0.33340116616498605  0.9476244663067471  0.8608622545004863  1.0000
  C   C16       1.0  0.6665988339769782  0.05237553364195077  0.13913774501370296  1.0000
  C   C17       1.0  0.4111678083743231  0.05509525644308252  0.901743928637266  1.0000
  C   C18       1.0  0.5888321917676411  0.9449047435056154  0.09825607087692313  1.0000
  C   C19       1.0  0.2992941290868293  0.5995812805712688  0.6928947726341367  1.0000
  C   C20       1.0  0.700705871055135  0.4004187193774292  0.3071052268800526  1.0000
  C   C21       1.0  0.4367156978977147  0.6614239581801736  0.6274087641671895  1.0000
  C   C22       1.0  0.5632843024118944  0.33857604192211416  0.3725912360408344  1.0000
  C   C23       1.0  0.26774043713867796  0.7102567344901681  0.5550151783522025  1.0000
  C   C24       1.0  0.7322595631709311  0.28974326561211977  0.4449848218558214  1.0000
  C   C25       1.0  0.40517665312943435  0.7629811668292399  0.48264997268769166  1.0000
  C   C26       1.0  0.5948233471801746  0.23701883327304799  0.5173500275203321  1.0000
  C   C27       1.0  0.23633171346893384  0.8269809322992129  0.42116157659779496  1.0000
  C   C28       1.0  0.7636682850227295  0.17301906780203283  0.5788384236080856  1.0000
  C   C29       1.0  0.36194755118631683  0.8704084145884642  0.3423541707729127  1.0000
  C   C30       1.0  0.6380524489556475  0.12959158536023377  0.6576458287412765  1.0000
  N   N1        1.0  0.8177038472576477  0.4143247861040964  0.895199969305018  1.0000
  N   N2        1.0  0.18229615123401594  0.5856752139971495  0.10480003090086248  1.0000
  N   N3        1.0  0.25981555657608857  0.08788604703286722  0.9702319206937527  1.0000
  N   N4        1.0  0.7401844437335205  0.9121139530694207  0.029768079514271  1.0000
  N   N5        1.0  0.13847535214193954  0.9135396489668987  0.9032345041813339  1.0000
  N   N6        1.0  0.8615246481676695  0.08646035113538916  0.09676549602668988  1.0000
  F   F1        1.0  0.15536085688259962  0.672988234940432  0.7426548176580707  1.0000
  F   F2        1.0  0.8446391434270094  0.3270117651618558  0.25734518254995303  1.0000
  F   F3        1.0  0.1477279284112246  0.5155100515423908  0.6416858942568848  1.0000
  F   F4        1.0  0.8522720717307397  0.4844899484063071  0.35831410525730445  1.0000
  F   F5        1.0  0.5780674622190903  0.7470554590773394  0.6828155218400126  1.0000
  F   F6        1.0  0.42193253809051867  0.2529445410249484  0.31718447836801117  1.0000
  F   F7        1.0  0.5864197300661762  0.5901134986913907  0.5803806181127276  1.0000
  F   F8        1.0  0.41358027007578796  0.40988650125730713  0.41961938140146166  1.0000
  F   F9        1.0  0.13662615902336853  0.7895889844564268  0.6034872735529488  1.0000
  F   F10       1.0  0.8633738412862404  0.21041101564586093  0.39651272665507487  1.0000
  F   F11       1.0  0.10987546652704397  0.6274193311410379  0.5064334995178692  1.0000
  F   F12       1.0  0.8901245317969748  0.37258066880661794  0.4935664999941768  1.0000
  F   F13       1.0  0.5884565820674671  0.8354933516484068  0.5292612130428618  1.0000
  F   F14       1.0  0.4115434182421418  0.1645066484538811  0.470738787165162  1.0000
  F   F15       1.0  0.5056509066315399  0.6802458429287765  0.4254228415853586  1.0000
  F   F16       1.0  0.4943490936780691  0.3197541571735114  0.5745771586226652  1.0000
  F   F17       1.0  0.1549794942683312  0.9160279887349174  0.47733656734050695  1.0000
  F   F18       1.0  0.8450205060412778  0.0839720113673704  0.5226634328675168  1.0000
  F   F19       1.0  0.039793133037108394  0.7579757708664507  0.3804280191422706  1.0000
  F   F20       1.0  0.9602068672725006  0.24202422923583713  0.6195719810657533  1.0000
  F   F21       1.0  0.5676918728295592  0.9336590973566268  0.3790425097164932  1.0000
  F   F22       1.0  0.43230812748004976  0.06634090274566125  0.6209574904915306  1.0000
  F   F23       1.0  0.4292640486197369  0.7827584129607735  0.2798142796243915  1.0000
  F   F24       1.0  0.5707359515222274  0.2172415869879244  0.7201857198897978  1.0000
  I   I1        1.0  0.5492829621807866  0.5282765754321256  0.7881989464959238  1.0000
  I   I2        1.0  0.45071703812882236  0.47172342467016243  0.2118010537121  1.0000
  I   I3        1.0  0.11239979779482998  0.966006958381996  0.2710403004177266  1.0000
  I   I4        1.0  0.8876002023471343  0.033993041566701965  0.7289596990964627  1.0000
