data_image0
_chemical_formula_structural       H16C22N6F8I2
_chemical_formula_sum              "H16 C22 N6 F8 I2"
_cell_length_a       5.650901741596942
_cell_length_b       7.783885163150287
_cell_length_c       15.020222913022257
_cell_angle_alpha    89.44639671555005
_cell_angle_beta     85.39208037364983
_cell_angle_gamma    75.01892487379983

_space_group_name_H-M_alt    "P 1"
_space_group_IT_number       1

loop_
  _space_group_symop_operation_xyz
  'x, y, z'

loop_
  _atom_site_type_symbol
  _atom_site_label
  _atom_site_symmetry_multiplicity
  _atom_site_fract_x
  _atom_site_fract_y
  _atom_site_fract_z
  _atom_site_occupancy
  H   H1        1.0  0.3426786915648264  0.6839834757664083  0.1386256329331484  1.0000
  H   H2        1.0  0.6573213080806652  0.3160165243022833  0.8613743670702857  1.0000
  H   H3        1.0  0.56257588395162  0.895615292362691  0.19491205675909193  1.0000
  H   H4        1.0  0.43742411569387163  0.10438470770600057  0.8050879432443423  1.0000
  H   H5        1.0  0.6970797371170666  0.565729689452866  0.42763023105308434  1.0000
  H   H6        1.0  0.3029202625284251  0.43427031061582544  0.5723697689503497  1.0000
  H   H7        1.0  0.4634393797234554  0.3696831938743417  0.3621975514427204  1.0000
  H   H8        1.0  0.5365606199220362  0.6303168061943498  0.6378024485607138  1.0000
  H   H9        1.0  0.9849403860591383  0.829971946440632  0.3196686257202784  1.0000
  H   H10       1.0  0.01505961358635347  0.17002805362805956  0.6803313742831558  1.0000
  H   H11       1.0  0.710924685749827  0.005000262389615879  0.32851200090908744  1.0000
  H   H12       1.0  0.2890753138956646  0.9949997376790757  0.6714879990943468  1.0000
  H   H13       1.0  0.02416573899360046  0.741234908425901  0.6374591004115876  1.0000
  H   H14       1.0  0.9758342611287161  0.2587650903128735  0.3625408995913148  1.0000
  H   H15       1.0  0.16648294116904214  0.6984592792916356  0.45450690694554363  1.0000
  H   H16       1.0  0.8335170602455411  0.30154072077940275  0.5454930930564614  1.0000
  C   C1        1.0  0.4234434726857734  0.6631222534574022  0.2026546863426851  1.0000
  C   C2        1.0  0.5765565269597179  0.33687774661128944  0.797345313660749  1.0000
  C   C3        1.0  0.5484122981021798  0.7797257323373386  0.23392527709452943  1.0000
  C   C4        1.0  0.45158770154331174  0.220274267731353  0.7660747229089048  1.0000
  C   C5        1.0  0.6511623505759786  0.7466931759719835  0.31594154541377356  1.0000
  C   C6        1.0  0.348837649069513  0.2533068240967081  0.6840584545896606  1.0000
  C   C7        1.0  0.6206841589068702  0.5972494275671767  0.36329684240672794  1.0000
  C   C8        1.0  0.3793158407386213  0.40275057250151486  0.6367031575967063  1.0000
  C   C9        1.0  0.4910877957662469  0.48783297152352134  0.3274091256931286  1.0000
  C   C10       1.0  0.5089122056483363  0.5121670285475173  0.6725908743088765  1.0000
  C   C11       1.0  0.7942196445827422  0.8689318973385807  0.34931884278669173  1.0000
  C   C12       1.0  0.20578035683184095  0.131068102732458  0.6506811572153134  1.0000
  C   C13       1.0  0.6175347187923115  0.943560114699623  0.5101006501036734  1.0000
  C   C14       1.0  0.38246528085318016  0.05643988536906852  0.48989934989976075  1.0000
  C   C15       1.0  0.9232700567884254  0.794543631441681  0.5806384382153829  1.0000
  C   C16       1.0  0.07672994285706605  0.20545636862701047  0.4193615617880514  1.0000
  C   C17       1.0  0.9968678671138157  0.7700034389692036  0.49089165943457697  1.0000
  C   C18       1.0  0.003132132531675987  0.2299965610994879  0.5091083405688572  1.0000
  C   C19       1.0  0.9103793459833415  0.1943926778655748  0.09611529388935486  1.0000
  C   C20       1.0  0.0896206536621501  0.8056073222031167  0.9038847061140793  1.0000
  C   C21       1.0  0.06571075315496643  0.06393585996335026  0.022414304289392704  1.0000
  C   C22       1.0  0.9342892482596167  0.9360641401076883  0.9775856957126123  1.0000
  N   N1        1.0  0.3931551409983475  0.5205249883715688  0.24858581916588132  1.0000
  N   N2        1.0  0.6068448586471441  0.4794750116971228  0.7514141808375528  1.0000
  N   N3        1.0  0.8024659603963471  0.8656460081793141  0.44604422215049494  1.0000
  N   N4        1.0  0.19753403924914456  0.13435399188937733  0.5539557778529394  1.0000
  N   N5        1.0  0.6883808892749154  0.9020205476648697  0.5922530644835315  1.0000
  N   N6        1.0  0.31161911037057605  0.09797945240382189  0.4077469355199027  1.0000
  F   F1        1.0  0.8047771598736837  0.10001247851692478  0.15870062048740985  1.0000
  F   F2        1.0  0.19522283977180777  0.8999875215517668  0.8412993795160244  1.0000
  F   F3        1.0  0.724124439874396  0.31161453525919647  0.057295615040580186  1.0000
  F   F4        1.0  0.2758755597710955  0.688385464809495  0.942704384962854  1.0000
  F   F5        1.0  0.26789847051336135  0.9597532321874843  0.0591606527182061  1.0000
  F   F6        1.0  0.732101530901222  0.04024676788355421  0.940839347283799  1.0000
  F   F7        1.0  0.1431972470464685  0.16620140761541657  0.9573883871952379  1.0000
  F   F8        1.0  0.8568027525990232  0.8337985924532749  0.04261161280819631  1.0000
  I   I1        1.0  0.13321457716900464  0.3356612837511171  0.16454052598448618  1.0000
  I   I2        1.0  0.8667854224764869  0.6643387163175744  0.8354594740189482  1.0000
