data_image0
_chemical_formula_structural       H16C20N6F4I2
_chemical_formula_sum              "H16 C20 N6 F4 I2"
_cell_length_a       5.76162223684849
_cell_length_b       7.708131825912936
_cell_length_c       13.226340684118803
_cell_angle_alpha    97.56783185403145
_cell_angle_beta     95.64555796267912
_cell_angle_gamma    104.6120246934594

_space_group_name_H-M_alt    "P 1"
_space_group_IT_number       1

loop_
  _space_group_symop_operation_xyz
  'x, y, z'

loop_
  _atom_site_type_symbol
  _atom_site_label
  _atom_site_symmetry_multiplicity
  _atom_site_fract_x
  _atom_site_fract_y
  _atom_site_fract_z
  _atom_site_occupancy
  H   H1        1.0  0.9836577791453492  0.7860620201393284  0.6480487518857235  1.0000
  H   H2        1.0  0.016342221100459287  0.21393797996598993  0.35195124768364267  1.0000
  H   H3        1.0  0.8392496777118637  0.6867291889643468  0.43557392960622615  1.0000
  H   H4        1.0  0.16075032079902626  0.31327081114319993  0.5644260699629139  1.0000
  H   H5        1.0  0.5166713571706526  0.31737381888101573  0.3471654386411585  1.0000
  H   H6        1.0  0.48332864332220316  0.6826261814426076  0.6528345616981975  1.0000
  H   H7        1.0  0.2935653148498113  0.538990089530414  0.4156791535764265  1.0000
  H   H8        1.0  0.7064346856430443  0.4610099107932092  0.5843208467629295  1.0000
  H   H9        1.0  0.43199044347503607  0.8004646006005827  0.1496248049282291  1.0000
  H   H10       1.0  0.5680095570178197  0.1995353997230405  0.8503751954111269  1.0000
  H   H11       1.0  0.6462345100604004  0.5684546450308395  0.09338471810767857  1.0000
  H   H12       1.0  0.35376549018540804  0.43154535507447883  0.9066152814616877  1.0000
  H   H13       1.0  0.28947081726709534  0.9537039202481341  0.29909877591299794  1.0000
  H   H14       1.0  0.7105291810349194  0.04629607873660858  0.7009012244246707  1.0000
  H   H15       1.0  0.016511853411120787  0.7776063345710709  0.2839952811190837  1.0000
  H   H16       1.0  0.9834881470817349  0.2223936657525525  0.7160047192202723  1.0000
  C   C1        1.0  0.38371567742379514  0.9472173928318856  0.5093825395613925  1.0000
  C   C2        1.0  0.6162843228220134  0.05278260727343296  0.4906174600079737  1.0000
  C   C3        1.0  0.08242458998728536  0.821181974267019  0.5846058967202518  1.0000
  C   C4        1.0  0.9175754083147291  0.1788180247177234  0.4153941036174167  1.0000
  C   C5        1.0  0.007997748659909036  0.7691073189554879  0.4802346839736863  1.0000
  C   C6        1.0  0.9920022518329467  0.23089268136813534  0.5197653163656697  1.0000
  C   C7        1.0  0.4919678607779813  0.4267880975519585  0.30599762249215795  1.0000
  C   C8        1.0  0.5080321377329086  0.5732119025555883  0.6940023770769822  1.0000
  C   C9        1.0  0.3680868580895056  0.5502824924659977  0.34337588511943423  1.0000
  C   C10       1.0  0.6319131417003805  0.44971750629821156  0.6566241144484706  1.0000
  C   C11       1.0  0.34116489665812005  0.687379947273285  0.2873038369269271  1.0000
  C   C12       1.0  0.658835103131766  0.31262005149092414  0.7126961626409777  1.0000
  C   C13       1.0  0.44268944403000887  0.6948077578626215  0.19563620681356375  1.0000
  C   C14       1.0  0.5573105562157997  0.3051922422426968  0.8043637927558025  1.0000
  C   C15       1.0  0.5634570251445274  0.5662329168038592  0.16414254641954576  1.0000
  C   C16       1.0  0.4365429736134096  0.4337670835219924  0.8358574539195841  1.0000
  C   C17       1.0  0.20502240723452972  0.8234354908040582  0.3218681510964799  1.0000
  C   C18       1.0  0.7949775910674849  0.17656450818068442  0.6781318492411886  1.0000
  C   C19       1.0  0.07111239695324285  0.07682255892216237  0.04353073976592315  1.0000
  C   C20       1.0  0.9288876032925657  0.9231774411831558  0.9564692598034431  1.0000
  N   N1        1.0  0.1995466519142814  0.8499901329002807  0.4324728396638191  1.0000
  N   N2        1.0  0.8004533483315273  0.15000986720503773  0.5675271599055471  1.0000
  N   N3        1.0  0.31502077669239775  0.9314501359305688  0.6023174872161103  1.0000
  N   N4        1.0  0.6849792235534108  0.0685498641747496  0.39768251235325586  1.0000
  N   N5        1.0  0.5889973654437439  0.43475059293258556  0.21804435864775454  1.0000
  N   N6        1.0  0.4110026348020646  0.5652494071727329  0.7819556409216116  1.0000
  F   F1        1.0  0.24216764353913525  0.19579909261087902  0.002495357804745573  1.0000
  F   F2        1.0  0.7578323569537204  0.8042009077127441  0.9975046425346104  1.0000
  F   F3        1.0  0.19267974473886207  0.002764564218339397  0.11393230591480953  1.0000
  F   F4        1.0  0.8073202557539937  0.9972354361052839  0.8860676944245465  1.0000
  I   I1        1.0  0.8455189504854053  0.224637445574422  0.12342602653551597  1.0000
  I   I2        1.0  0.1544810500074505  0.7753625547492011  0.87657397380384  1.0000
