data_image0
_chemical_formula_structural       H8C8N18O8
_chemical_formula_sum              "H8 C8 N18 O8"
_cell_length_a       7.525756586762457
_cell_length_b       7.912435453551506
_cell_length_c       7.974274765681576
_cell_angle_alpha    75.51629022996757
_cell_angle_beta     77.16212491473242
_cell_angle_gamma    72.93302920212437

_space_group_name_H-M_alt    "P 1"
_space_group_IT_number       1

loop_
  _space_group_symop_operation_xyz
  'x, y, z'

loop_
  _atom_site_type_symbol
  _atom_site_label
  _atom_site_symmetry_multiplicity
  _atom_site_fract_x
  _atom_site_fract_y
  _atom_site_fract_z
  _atom_site_occupancy
  H   H1        1.0  0.4560158497397009  0.7225505955053557  0.8445445257954841  1.0000
  H   H2        1.0  0.543984149431782  0.2774494050417757  0.15545547343120422  1.0000
  H   H3        1.0  0.9696394714983644  0.44536309277597336  0.8215409302165243  1.0000
  H   H4        1.0  0.030360527673118646  0.5546369077711578  0.1784590690101639  1.0000
  H   H5        1.0  0.7855283954304724  0.5131488249205578  0.6974778851629551  1.0000
  H   H6        1.0  0.21447160545184413  0.48685117426854313  0.30252211403583995  1.0000
  H   H7        1.0  0.2687057894357818  0.9233635187388746  0.14729770403155248  1.0000
  H   H8        1.0  0.7312942111009193  0.07663648179905284  0.8527022949064882  1.0000
  C   C1        1.0  0.6422418593374849  0.7338457533076452  0.1437980810911966  1.0000
  C   C2        1.0  0.35775814155030994  0.2661542458798046  0.8562019193608824  1.0000
  C   C3        1.0  0.7316223932236756  0.6032904323295085  0.9285446665827134  1.0000
  C   C4        1.0  0.2683776073185037  0.3967095682067679  0.07145533360861103  1.0000
  C   C5        1.0  0.8920264225870735  0.17291784514489641  0.2842473941411725  1.0000
  C   C6        1.0  0.10797357795510594  0.82708215539138  0.715752606050152  1.0000
  C   C7        1.0  0.989605337112  0.03581759421935245  0.07733651693489343  1.0000
  C   C8        1.0  0.010394663430179446  0.9641824063169239  0.922663483256431  1.0000
  N   N1        1.0  0.6406177094518953  0.7981594476863064  0.2983988975361232  1.0000
  N   N2        1.0  0.3593822914304211  0.2018405515027945  0.7016011016626719  1.0000
  N   N3        1.0  0.4907166150280345  0.7881745500973409  0.06693382722891691  1.0000
  N   N4        1.0  0.5092833841434484  0.2118254504497903  0.9330661719977716  1.0000
  N   N5        1.0  0.5485486931596936  0.703161616098719  0.9292542490101847  1.0000
  N   N6        1.0  0.4514513060172679  0.2968383844467612  0.07074575146978768  1.0000
  N   N7        1.0  0.7936906137731535  0.6217728649717364  0.06838466668731386  1.0000
  N   N8        1.0  0.20630938539832946  0.37822713557539483  0.9316153325393747  1.0000
  N   N9        1.0  0.8298799210809982  0.500958821540893  0.8122580783286476  1.0000
  N   N10       1.0  0.17012007843610022  0.4990411776574118  0.18774192115879504  1.0000
  N   N11       1.0  0.7659191841932044  0.2900121699026386  0.3968330663241438  1.0000
  N   N12       1.0  0.23408081498375702  0.7099878306428415  0.6031669341558286  1.0000
  N   N13       1.0  0.8341814219817371  0.14394399934694074  0.14805945053646452  1.0000
  N   N14       1.0  0.16581857856044238  0.8560560011893357  0.85194054965486  1.0000
  N   N15       1.0  0.130280545154852  0.0038576904516797058  0.17184336995560912  1.0000
  N   N16       1.0  0.8697194543677248  0.996142308744974  0.8281566307851176  1.0000
  N   N17       1.0  0.07039684304614087  0.09153889896288042  0.3051641597096971  1.0000
  N   N18       1.0  0.9296031574960387  0.9084611015733959  0.6948358404816275  1.0000
  O   O1        1.0  0.7815258270940512  0.7327145576751768  0.3725538506598491  1.0000
  O   O2        1.0  0.21847417344812833  0.26728544286109956  0.6274461495314755  1.0000
  O   O3        1.0  0.4998955390477239  0.9154377047495181  0.34409625095329166  1.0000
  O   O4        1.0  0.5001044614944556  0.08456229578675817  0.6559037492380329  1.0000
  O   O5        1.0  0.6032002869749781  0.35775070091607986  0.36252433060481926  1.0000
  O   O6        1.0  0.39679971356720145  0.6422492996201964  0.6374756695865053  1.0000
  O   O7        1.0  0.8269786581248931  0.31642628911603793  0.5169028248269772  1.0000
  O   O8        1.0  0.1730213413922053  0.6835737100822669  0.4830971746604656  1.0000
