data_image0
_chemical_formula_structural       H52C40N16O24S8Cl4
_chemical_formula_sum              "H52 C40 N16 O24 S8 Cl4"
_cell_length_a       9.92720618709
_cell_length_b       15.14169953313573
_cell_length_c       9.646990066647415
_cell_angle_alpha    90.0
_cell_angle_beta     98.51685911940962
_cell_angle_gamma    90.0

_space_group_name_H-M_alt    "P 1"
_space_group_IT_number       1

loop_
  _space_group_symop_operation_xyz
  'x, y, z'

loop_
  _atom_site_type_symbol
  _atom_site_label
  _atom_site_symmetry_multiplicity
  _atom_site_fract_x
  _atom_site_fract_y
  _atom_site_fract_z
  _atom_site_occupancy
  H   H1        1.0  0.09105942770837475  0.16533647920574931  0.0810410072529524  1.0000
  H   H2        1.0  0.9089405723021843  0.665336479432417  0.4189589930151328  1.0000
  H   H3        1.0  0.9089405722337808  0.8346635205871583  0.918958992642586  1.0000
  H   H4        1.0  0.09105942778797936  0.3346635203604906  0.5810410079285528  1.0000
  H   H5        1.0  0.3637508351982266  0.7505414960275932  0.9669758805960921  1.0000
  H   H6        1.0  0.6362491648235334  0.25054149646135326  0.5330241199750466  1.0000
  H   H7        1.0  0.6362491647439289  0.2494585037653145  0.03302411929944614  1.0000
  H   H8        1.0  0.363750835118622  0.7494585039919822  0.4669758799204918  1.0000
  H   H9        1.0  0.2519607043338817  0.7178124844053839  0.8215609054493235  1.0000
  H   H10       1.0  0.7480392955398703  0.21781248417871615  0.678439094073668  1.0000
  H   H11       1.0  0.7480392956082738  0.2821875160479516  0.17843909444621486  1.0000
  H   H12       1.0  0.25196070440228513  0.7821875156141915  0.32156090582187025  1.0000
  H   H13       1.0  0.9199183605378706  0.24302408074781962  0.9431176147000411  1.0000
  H   H14       1.0  0.08008163933588125  0.7430240809744874  0.5568823848229504  1.0000
  H   H15       1.0  0.08008163940428478  0.7569759190450881  0.0568823851954972  1.0000
  H   H16       1.0  0.9199183606062742  0.2569759194788482  0.443117615072588  1.0000
  H   H17       1.0  0.25224141156270286  0.05160660520901088  0.13362597771718407  1.0000
  H   H18       1.0  0.7477585884478561  0.5516066054356786  0.36637402255090107  1.0000
  H   H19       1.0  0.7477585883794526  0.9483933945838968  0.8663740221783542  1.0000
  H   H20       1.0  0.2522414114942993  0.448393394357229  0.6336259773446372  1.0000
  H   H21       1.0  0.13278845346054496  0.9352995553113551  0.6472366145070159  1.0000
  H   H22       1.0  0.8672115464132069  0.43529955508468726  0.8527633850159756  1.0000
  H   H23       1.0  0.8672115464816104  0.06470044514198049  0.3527633853885225  1.0000
  H   H24       1.0  0.1327884535289485  0.5647004447082205  0.14723661487956272  1.0000
  H   H25       1.0  0.7538255244385023  0.849120969668151  0.41495777670022316  1.0000
  H   H26       1.0  0.24617447542404858  0.34912097010191107  0.08504222251971473  1.0000
  H   H27       1.0  0.24617447550365323  0.1508790301247567  0.5850422231953152  1.0000
  H   H28       1.0  0.7538255245181068  0.6508790303514245  0.9149577773758236  1.0000
  H   H29       1.0  0.7989803033015799  0.8874002426606964  0.5847877699431128  1.0000
  H   H30       1.0  0.20101969657217203  0.38740024243402865  0.9152122295798789  1.0000
  H   H31       1.0  0.20101969664057553  0.11259975779263913  0.41521222995242557  1.0000
  H   H32       1.0  0.7989803033699834  0.6125997573588791  0.08478777031565957  1.0000
  H   H33       1.0  0.6764424126676679  0.7269675062506293  0.49049778973556757  1.0000
  H   H34       1.0  0.323557587342891  0.22696750602396157  0.0095022105325175  1.0000
  H   H35       1.0  0.3235575872744874  0.2730324935422783  0.5095022101599707  1.0000
  H   H36       1.0  0.6764424125992645  0.7730324937689461  0.9904977893630209  1.0000
  H   H37       1.0  0.5667897356628656  0.786868525816837  0.5850900644056817  1.0000
  H   H38       1.0  0.43321026435889437  0.28686852559016923  0.914909936165457  1.0000
  H   H39       1.0  0.43321026442729793  0.21313147463649856  0.4149099365380038  1.0000
  H   H40       1.0  0.5667897355832611  0.7131314742027384  0.08509006373008136  1.0000
  H   H41       1.0  0.5297791483325885  0.9054117571147493  0.40688406578712266  1.0000
  H   H42       1.0  0.47022085167797045  0.4054117568880815  0.09311593448096248  1.0000
  H   H43       1.0  0.47022085160956695  0.09458824333858623  0.5931159341084157  1.0000
  H   H44       1.0  0.5297791482641849  0.5945882429048261  0.9068840654145759  1.0000
  H   H45       1.0  0.6553405593451095  0.9913037533965343  0.44569853286972383  1.0000
  H   H46       1.0  0.3446594405174413  0.4913037531698665  0.05430146635021409  1.0000
  H   H47       1.0  0.3446594416048001  0.008696246396373376  0.5543014670287709  1.0000
  H   H48       1.0  0.6553405594247141  0.5086962466230411  0.9456985335453242  1.0000
  H   H49       1.0  0.5742802411333032  0.9458205876202698  0.5833983967956766  1.0000
  H   H50       1.0  0.4257197588884568  0.44582058805402985  0.9166016037754621  1.0000
  H   H51       1.0  0.42571975880885227  0.05417941217263793  0.4166016030998617  1.0000
  H   H52       1.0  0.5742802412017067  0.5541794123993057  0.08339839716822343  1.0000
  C   C1        1.0  0.9583333146881743  0.18414206172156028  0.896427827618373  1.0000
  C   C2        1.0  0.041666685333585744  0.6841420612878002  0.6035721729527657  1.0000
  C   C3        1.0  0.04166668525398116  0.8158579387317751  0.1035721722771653  1.0000
  C   C4        1.0  0.9583333146085695  0.31585793850510746  0.39642782694277257  1.0000
  C   C5        1.0  0.12147942371221986  0.06646339585577477  0.9348664033483389  1.0000
  C   C6        1.0  0.8785205761615319  0.5664633954220146  0.5651335961746524  1.0000
  C   C7        1.0  0.8785205762299354  0.9335366045975607  0.0651335965471992  1.0000
  C   C8        1.0  0.12147942378062343  0.433536604370893  0.434866403720886  1.0000
  C   C9        1.0  0.22665685025696755  0.026721378872600635  0.027190600135067935  1.0000
  C   C10       1.0  0.7733431506133376  0.5267213784388405  0.47280939908782627  1.0000
  C   C11       1.0  0.7733431506929421  0.9732786215807349  0.9728093997634267  1.0000
  C   C12       1.0  0.22665685033657212  0.4732786213540671  0.5271906008106684  1.0000
  C   C13       1.0  0.2983382083351254  0.9561893325327165  0.9823336441206925  1.0000
  C   C14       1.0  0.7016617926943888  0.45618933230604886  0.5176663564534025  1.0000
  C   C15       1.0  0.7016617926147842  0.043810667260191075  0.01766635577780215  1.0000
  C   C16       1.0  0.2983382082555209  0.5438106674868588  0.4823336434450921  1.0000
  C   C17       1.0  0.2670522477928146  0.9240746436276926  0.8436937747575405  1.0000
  C   C18       1.0  0.7329477520809372  0.4240746434010249  0.6563062247654509  1.0000
  C   C19       1.0  0.7329477521493407  0.07592535616521501  0.15630622513799772  1.0000
  C   C20       1.0  0.2670522478612182  0.5759253563918828  0.3436937751300874  1.0000
  C   C21       1.0  0.15925043595772087  0.9611578401850686  0.7533808156168813  1.0000
  C   C22       1.0  0.8407495639160311  0.46115784061882875  0.7466191839061103  1.0000
  C   C23       1.0  0.8407495639844346  0.038842159607839044  0.24661918427865706  1.0000
  C   C24       1.0  0.1592504360261244  0.538842159174079  0.2533808159894281  1.0000
  C   C25       1.0  0.08654841067211655  0.031782771738856304  0.7986456782194019  1.0000
  C   C26       1.0  0.9134515893496433  0.5317827713050962  0.7013543223517368  1.0000
  C   C27       1.0  0.9134515892700389  0.9682172287144791  0.20135432167613634  1.0000
  C   C28       1.0  0.08654841059251195  0.4682172284878115  0.29864567754380156  1.0000
  C   C29       1.0  0.7565048436024567  0.7555783599432389  0.7074613717534721  1.0000
  C   C30       1.0  0.24349515641930333  0.25557835971657106  0.7925386288176667  1.0000
  C   C31       1.0  0.24349515633969873  0.24442163984966883  0.29253862814206616  1.0000
  C   C32       1.0  0.7565048435228521  0.7444216400763366  0.20746137107787171  1.0000
  C   C33       1.0  0.6726702688639211  0.7797659268143505  0.5674371453960154  1.0000
  C   C34       1.0  0.327329731157839  0.27976592658768273  0.9325628551751234  1.0000
  C   C35       1.0  0.3273297310782344  0.22023407363898506  0.43256285449952286  1.0000
  C   C36       1.0  0.6726702687843165  0.7202340732052249  0.067437144720415  1.0000
  C   C37       1.0  0.6117563043065696  0.9315476052825173  0.48469214465224314  1.0000
  C   C38       1.0  0.3882436957039895  0.4315476050558496  0.015307855615841996  1.0000
  C   C39       1.0  0.38824369563558586  0.06845239451039033  0.5153078552432951  1.0000
  C   C40       1.0  0.611756304238166  0.5684523947370581  0.9846921442796963  1.0000
  N   N1        1.0  0.9062082366322177  0.16507664972020247  0.7672764792681148  1.0000
  N   N2        1.0  0.09379176338954225  0.6650766499468702  0.732723521303024  1.0000
  N   N3        1.0  0.09379176330993763  0.8349233500727052  0.23272352062742352  1.0000
  N   N4        1.0  0.9062082367006215  0.33492334984603744  0.26727647964066165  1.0000
  N   N5        1.0  0.056146936191427535  0.13990340815865474  0.9792085362177806  1.0000
  N   N6        1.0  0.9438530638303325  0.6399034083853224  0.5207914643533582  1.0000
  N   N7        1.0  0.943853063750728  0.8600965916342529  0.020791463677757787  1.0000
  N   N8        1.0  0.05614693625983106  0.360096592068013  0.47920853659032736  1.0000
  N   N9        1.0  0.34404416822029826  0.7483196291937958  0.8598791121315345  1.0000
  N   N10       1.0  0.6559558318014619  0.24831962962755585  0.6401208884396044  1.0000
  N   N11       1.0  0.6559558318698654  0.2516803705991119  0.14012088881215123  1.0000
  N   N12       1.0  0.3440441681406936  0.7516803708257795  0.359879111455934  1.0000
  N   N13       1.0  0.7197047961837112  0.8638413806439618  0.5120170981650535  1.0000
  N   N14       1.0  0.28029520469779484  0.363841380417294  0.9879829013608945  1.0000
  N   N15       1.0  0.28029520476619835  0.13615861914894592  0.4879829017334412  1.0000
  N   N16       1.0  0.7197047962521148  0.6361586193756137  0.012017098537600275  1.0000
  O   O1        1.0  0.9997789780648407  0.1102190303240275  0.5568485465373262  1.0000
  O   O2        1.0  0.00022102195691923004  0.6102190305506953  0.9431514540338126  1.0000
  O   O3        1.0  0.0002210218773146234  0.8897809694688801  0.44315145335821204  1.0000
  O   O4        1.0  0.9997789779852362  0.38978096924221245  0.056848545861725795  1.0000
  O   O5        1.0  0.8379324746889388  0.01865007157102915  0.663302040810093  1.0000
  O   O6        1.0  0.16206752518481304  0.5186500711372691  0.8366979587128985  1.0000
  O   O7        1.0  0.16206752525321655  0.9813499288823063  0.33669795908544525  1.0000
  O   O8        1.0  0.8379324747573422  0.48134992865563864  0.16330204118263988  1.0000
  O   O9        1.0  0.3054053368814804  0.8243057883090353  0.6329996932001887  1.0000
  O   O10       1.0  0.6945946629922715  0.32430578808236754  0.8670003063228029  1.0000
  O   O11       1.0  0.694594663060675  0.17569421148387235  0.3670003066953496  1.0000
  O   O12       1.0  0.305405336949884  0.6756942117105401  0.1329996935727355  1.0000
  O   O13       1.0  0.5066924053066347  0.8651780714134297  0.8075898496057158  1.0000
  O   O14       1.0  0.4933075945671172  0.365178071186762  0.6924101499172758  1.0000
  O   O15       1.0  0.4933075946355207  0.13482192837947796  0.19241015028982264  1.0000
  O   O16       1.0  0.5066924053750382  0.6348219286061457  0.3075898499782625  1.0000
  O   O17       1.0  0.7294942824166365  0.6809565648450497  0.754327573891131  1.0000
  O   O18       1.0  0.27050571745711544  0.180956564618382  0.7456724256318603  1.0000
  O   O19       1.0  0.2705057175255189  0.3190434349478579  0.24567242600440717  1.0000
  O   O20       1.0  0.72949428248504  0.8190434351745257  0.254327574263678  1.0000
  O   O21       1.0  0.8430676671523197  0.8121134753129942  0.7620696194646686  1.0000
  O   O22       1.0  0.1569323328694402  0.31211347508632653  0.7379303811064701  1.0000
  O   O23       1.0  0.1569323327898356  0.1878865251403413  0.23793038043086964  1.0000
  O   O24       1.0  0.8430676672207235  0.6878865247065812  0.2620696198372155  1.0000
  S   S1        1.0  0.9519618438395807  0.07943924441029375  0.6833035547643912  1.0000
  S   S2        1.0  0.04803815603417129  0.5794392439765337  0.8166964447586003  1.0000
  S   S3        1.0  0.04803815610257483  0.9205607560430418  0.3166964451311471  1.0000
  S   S4        1.0  0.951961843907984  0.420560755816374  0.18330355513693808  1.0000
  S   S5        1.0  0.36536423076419855  0.8391019747945562  0.7778098995990489  1.0000
  S   S6        1.0  0.6346357692575615  0.33910197522831625  0.7221901009720899  1.0000
  S   S7        1.0  0.6346357693259651  0.1608980249983515  0.2221901013446368  1.0000
  S   S8        1.0  0.3653642306845939  0.6608980252250192  0.2778098989234484  1.0000
  Cl  Cl1       1.0  0.4252799230983905  0.9092053735363601  0.1004702361143041  1.0000
  Cl  Cl2       1.0  0.5747200769121684  0.4092053733096923  0.39952976415378105  1.0000
  Cl  Cl3       1.0  0.5747200768437649  0.09079462691697544  0.8995297637812342  1.0000
  Cl  Cl4       1.0  0.425279923029987  0.5907946264832153  0.6004702357417573  1.0000
