data_image0
_chemical_formula_structural       H56C86N2O22P2
_chemical_formula_sum              "H56 C86 N2 O22 P2"
_cell_length_a       10.3307745979012
_cell_length_b       11.081021904518213
_cell_length_c       17.918612352672987
_cell_angle_alpha    71.494858986026
_cell_angle_beta     75.68777624639644
_cell_angle_gamma    62.9280111781474

_space_group_name_H-M_alt    "P 1"
_space_group_IT_number       1

loop_
  _space_group_symop_operation_xyz
  'x, y, z'

loop_
  _atom_site_type_symbol
  _atom_site_label
  _atom_site_symmetry_multiplicity
  _atom_site_fract_x
  _atom_site_fract_y
  _atom_site_fract_z
  _atom_site_occupancy
  H   H1        1.0  0.013305879969843051  0.5302727107224127  0.42619281762861594  1.0000
  H   H2        1.0  0.9866941193644563  0.46972728941132497  0.5738071824126131  1.0000
  H   H3        1.0  0.05278173255857934  0.4438900597957342  0.3061808908527947  1.0000
  H   H4        1.0  0.94721826677572  0.5561099403380034  0.6938191091884344  1.0000
  H   H5        1.0  0.7521389757359608  0.8501512432474345  0.19198427026476256  1.0000
  H   H6        1.0  0.24786102359833878  0.14984875688630278  0.8080157297764665  1.0000
  H   H7        1.0  0.7094154358980699  0.9344869471403426  0.3137532089457315  1.0000
  H   H8        1.0  0.2905845644059332  0.06551305299819417  0.6862467910857092  1.0000
  H   H9        1.0  0.5598291909394901  0.8179728129464311  0.02641138965593283  1.0000
  H   H10       1.0  0.4401708083948093  0.18202718718730643  0.9735886103852962  1.0000
  H   H11       1.0  0.5894529797337787  0.9438520571419002  0.055839134577648254  1.0000
  H   H12       1.0  0.4105470196005207  0.05614794299183714  0.9441608654635809  1.0000
  H   H13       1.0  0.5374281509077304  0.8154311780913409  0.12928706940166212  1.0000
  H   H14       1.0  0.4625718493962726  0.18456882204719602  0.8707129306297786  1.0000
  H   H15       1.0  0.04131689826568599  0.3102028555248757  0.055319272736069444  1.0000
  H   H16       1.0  0.9586831010686134  0.689797144608862  0.9446807273051595  1.0000
  H   H17       1.0  0.8996018712109135  0.3105703811890575  0.13653880314831215  1.0000
  H   H18       1.0  0.1003981281233861  0.68942961894468  0.8634611968929168  1.0000
  H   H19       1.0  0.05511822299858808  0.3331502692979426  0.14755287783844476  1.0000
  H   H20       1.0  0.9448817763357112  0.6668497308357949  0.8524471222027843  1.0000
  H   H21       1.0  0.5442630094404742  0.12488225574787963  0.48108065940088496  1.0000
  H   H22       1.0  0.4557369903887631  0.875117743371368  0.5189193406427677  1.0000
  H   H23       1.0  0.6677860422534416  0.9621075484426757  0.5998700071530987  1.0000
  H   H24       1.0  0.3322139580505614  0.037892451695861154  0.40012999287834217  1.0000
  H   H25       1.0  0.48555552771614274  0.3010886724391269  0.7181257015929718  1.0000
  H   H26       1.0  0.5144444716181567  0.6989113276946106  0.28187429844825723  1.0000
  H   H27       1.0  0.3073944187945915  0.5725778375281823  0.6887175922962707  1.0000
  H   H28       1.0  0.6926055805397078  0.4274221626055553  0.31128240774495836  1.0000
  H   H29       1.0  0.06856827788557399  0.8850298622371883  0.49676862436010955  1.0000
  H   H30       1.0  0.9314317224184292  0.11497013790134859  0.5032313756713312  1.0000
  H   H31       1.0  0.16427467247208696  0.7069611322173809  0.4168736064159179  1.0000
  H   H32       1.0  0.8357253268622125  0.29303886791635675  0.5831263936253112  1.0000
  H   H33       1.0  0.006078539085565239  0.9517221075764277  0.7720283252496004  1.0000
  H   H34       1.0  0.9939214612184378  0.048277892562109105  0.2279716747818403  1.0000
  H   H35       1.0  0.13889419192905633  0.9320420363766304  0.8778221829301964  1.0000
  H   H36       1.0  0.861105807900181  0.06795796274261706  0.12217781711345622  1.0000
  H   H37       1.0  0.5496307868903508  0.7270962402275979  0.7429243255798611  1.0000
  H   H38       1.0  0.4503692124439488  0.2729037599061397  0.2570756744613679  1.0000
  H   H39       1.0  0.41944479776227417  0.7427532875320789  0.6408782052434425  1.0000
  H   H40       1.0  0.580555202541729  0.2572467126064579  0.35912179478799827  1.0000
  H   H41       1.0  0.7008805454643419  0.6811806852543543  0.9383136037676442  1.0000
  H   H42       1.0  0.29911945386995753  0.3188193148793833  0.06168639627358493  1.0000
  H   H43       1.0  0.881460105896356  0.43232046187566353  0.9575763769237438  1.0000
  H   H44       1.0  0.11853989343794326  0.5676795382580743  0.042423623117485175  1.0000
  H   H45       1.0  0.5727151141456874  0.3274766809779428  0.8972858091656052  1.0000
  H   H46       1.0  0.4272848851886122  0.6725233191557947  0.10271419087562396  1.0000
  H   H47       1.0  0.39733977908244555  0.5710012027769036  0.876292640083752  1.0000
  H   H48       1.0  0.602660220251854  0.428998797356834  0.1237073599574771  1.0000
  H   H49       1.0  0.8213704991588177  0.9736752303157445  0.968210076324806  1.0000
  H   H50       1.0  0.17862950017548174  0.026324769817993195  0.03178992371642304  1.0000
  H   H51       1.0  0.7244940911132605  0.8964138309158326  0.8843090246159871  1.0000
  H   H52       1.0  0.2755059091907427  0.10358616922270424  0.11569097541545355  1.0000
  H   H53       1.0  0.7461500898804307  0.23513265583968385  0.6886235627451063  1.0000
  H   H54       1.0  0.25384991042357236  0.764867344298853  0.3113764372863344  1.0000
  H   H55       1.0  0.8298038450851379  0.31830640567474133  0.7718878114715678  1.0000
  H   H56       1.0  0.17019615474409924  0.6816935934445063  0.2281121885720847  1.0000
  C   C1        1.0  0.8591773415499308  0.7373552804076439  0.3754817818665884  1.0000
  C   C2        1.0  0.14082265778436873  0.2626447197260936  0.6245182181746406  1.0000
  C   C3        1.0  0.9570544856389804  0.5994753103879035  0.37492623521134194  1.0000
  C   C4        1.0  0.042945514665022715  0.4005246897506333  0.6250737648200988  1.0000
  C   C5        1.0  0.978672018353213  0.5512125775608386  0.30821288835279465  1.0000
  C   C6        1.0  0.02132798098108649  0.44878742257289894  0.6917871116884344  1.0000
  C   C7        1.0  0.9017986281331803  0.6413529882505203  0.2438669640040997  1.0000
  C   C8        1.0  0.0982013712011191  0.3586470118832171  0.7561330360371293  1.0000
  C   C9        1.0  0.807239267890185  0.7803124744285901  0.2437303636597133  1.0000
  C   C10       1.0  0.19276073241381797  0.21968752570994676  0.7562696363717275  1.0000
  C   C11       1.0  0.785225106733041  0.8284370512796707  0.3105779489851532  1.0000
  C   C12       1.0  0.21477489357096222  0.1715629488588659  0.6894220510462876  1.0000
  C   C13       1.0  0.5990074602446656  0.8369494407246891  0.071285610481342  1.0000
  C   C14       1.0  0.4009925390896339  0.16305055940904828  0.928714389559887  1.0000
  C   C15       1.0  0.9802060424790523  0.35414478949819417  0.10646598109440684  1.0000
  C   C16       1.0  0.019793956855247125  0.6458552106355434  0.8935340189468222  1.0000
  C   C17       1.0  0.3650174701324696  0.421354472409817  0.4708535142435344  1.0000
  C   C18       1.0  0.6349825301715334  0.5786455277287197  0.5291464857879064  1.0000
  C   C19       1.0  0.4491992318657287  0.3029570582408936  0.5332517880457724  1.0000
  C   C20       1.0  0.5508007684382746  0.6970429418976432  0.4667482119856683  1.0000
  C   C21       1.0  0.5324474180042267  0.1632963123334376  0.5323637492872368  1.0000
  C   C22       1.0  0.467552581330073  0.8367036878002998  0.4676362507539923  1.0000
  C   C23       1.0  0.6008277246394793  0.07191852681359472  0.5991445928821153  1.0000
  C   C24       1.0  0.39917227578383907  0.9280814735685048  0.40085540655649676  1.0000
  C   C25       1.0  0.5870540121284216  0.12108665214378171  0.6651703633860043  1.0000
  C   C26       1.0  0.41294598817558137  0.8789133479947552  0.3348296366454364  1.0000
  C   C27       1.0  0.5009730210567931  0.2631960968589292  0.6660165982892604  1.0000
  C   C28       1.0  0.49902697924721  0.7368039032796078  0.3339834017421804  1.0000
  C   C29       1.0  0.431430747752896  0.35342069463644465  0.6000520759148561  1.0000
  C   C30       1.0  0.5685692515814034  0.6465793054972929  0.399947924126373  1.0000
  C   C31       1.0  0.3332043545043309  0.5044832562478684  0.5835342202455901  1.0000
  C   C32       1.0  0.6667956448299686  0.4955167438858693  0.4164657797956389  1.0000
  C   C33       1.0  0.27961867936879903  0.6026033515409815  0.6287424623735685  1.0000
  C   C34       1.0  0.7203813209352039  0.3973966485975553  0.3712575376578723  1.0000
  C   C35       1.0  0.18405044238876206  0.7408741803676684  0.5963842472486949  1.0000
  C   C36       1.0  0.8159495574404753  0.25912581875157936  0.40361575279495776  1.0000
  C   C37       1.0  0.14263735931743796  0.7781558981777826  0.5204902571730485  1.0000
  C   C38       1.0  0.857362640986565  0.22184410196075421  0.4795097428583923  1.0000
  C   C39       1.0  0.19706910971037678  0.6794427221448598  0.4753552461690318  1.0000
  C   C40       1.0  0.8029308905936264  0.3205572779936769  0.5246447538624088  1.0000
  C   C41       1.0  0.29229688854013014  0.5443646418084862  0.506853513178372  1.0000
  C   C42       1.0  0.7077031107941694  0.45563535832525137  0.493146486862857  1.0000
  C   C43       1.0  0.11851698999215296  0.8515949740688142  0.6420578124496903  1.0000
  C   C44       1.0  0.8814830093421465  0.14840502606492345  0.35794218759153873  1.0000
  C   C45       1.0  0.20228932194244517  0.8449858502737941  0.7011680798485337  1.0000
  C   C46       1.0  0.7977106783615581  0.1550141498647425  0.2988319201829071  1.0000
  C   C47       1.0  0.12505166280267777  0.9030829088135308  0.7665108335437524  1.0000
  C   C48       1.0  0.8749483379962631  0.09691709031051594  0.233489166490112  1.0000
  C   C49       1.0  0.19898734833932286  0.893583951180445  0.8248797707028513  1.0000
  C   C50       1.0  0.8010126509949766  0.10641604895329253  0.17512022933837776  1.0000
  C   C51       1.0  0.3521917225962175  0.8260112894875571  0.8175323212295372  1.0000
  C   C52       1.0  0.6478082777077858  0.17398871065097962  0.18246767880190354  1.0000
  C   C53       1.0  0.4303770342060161  0.7756847544690513  0.7496799677081607  1.0000
  C   C54       1.0  0.5696229651282834  0.22431524566468622  0.2503200323330684  1.0000
  C   C55       1.0  0.35598260268579296  0.7849939740041079  0.6919715252834563  1.0000
  C   C56       1.0  0.6440173976182103  0.21500602613442887  0.3080284747479844  1.0000
  C   C57       1.0  0.4329959526167247  0.7913468872867297  0.8849577370824139  1.0000
  C   C58       1.0  0.5670040478065937  0.20865311309536974  0.11504226235619815  1.0000
  C   C59       1.0  0.5395074758767671  0.6429610613396277  0.9040797196088689  1.0000
  C   C60       1.0  0.46049252442723615  0.35703893879890924  0.09592028042257186  1.0000
  C   C61       1.0  0.6738370821658306  0.6024550101435258  0.9301221232102501  1.0000
  C   C62       1.0  0.3261629171684689  0.39754498999021165  0.06987787683097885  1.0000
  C   C63       1.0  0.7743710914768894  0.4640134562884524  0.9409964995532341  1.0000
  C   C64       1.0  0.22562890785740997  0.5359865438452851  0.05900350048799499  1.0000
  C   C65       1.0  0.7410800092602381  0.36485241567262455  0.9263018705934521  1.0000
  C   C66       1.0  0.25891999007406147  0.635147584461113  0.07369812944777693  1.0000
  C   C67       1.0  0.6023563568638697  0.404079892963425  0.9058582094842244  1.0000
  C   C68       1.0  0.39764364344013364  0.5959201071751118  0.09414179054721639  1.0000
  C   C69       1.0  0.5027318786963418  0.5420677484112884  0.8943142222722233  1.0000
  C   C70       1.0  0.49726812063795767  0.4579322517224493  0.10568577776900567  1.0000
  C   C71       1.0  0.8537505888023407  0.21988247588371443  0.9279920871182707  1.0000
  C   C72       1.0  0.14624941053195878  0.7801175242500231  0.07200791292295836  1.0000
  C   C73       1.0  0.82826782584111  0.15220562038842608  0.8758048014998039  1.0000
  C   C74       1.0  0.17173217495783116  0.8477943787356208  0.12419519853406046  1.0000
  C   C75       1.0  0.8040402053742153  0.029997519651802456  0.9069829445459017  1.0000
  C   C76       1.0  0.1959597949297878  0.9700024804867344  0.09301705548553911  1.0000
  C   C77       1.0  0.7511800998794822  0.9869680172677917  0.8602772082209884  1.0000
  C   C78       1.0  0.24881989945481725  0.013031982865945793  0.1397227918202407  1.0000
  C   C79       1.0  0.7249970320190627  0.06269781926756297  0.7820548003022256  1.0000
  C   C80       1.0  0.2750029682849404  0.9373021808709739  0.21794519972921514  1.0000
  C   C81       1.0  0.7602868711172365  0.17860375186040392  0.7498763277693078  1.0000
  C   C82       1.0  0.23971312918676682  0.8213962482781328  0.25012367226213295  1.0000
  C   C83       1.0  0.8097783336111294  0.22400162023395453  0.7964809519662106  1.0000
  C   C84       1.0  0.19022166572317017  0.7759983798997829  0.2035190480750185  1.0000
  C   C85       1.0  0.6628914559478332  0.017108072819358614  0.7347251130806368  1.0000
  C   C86       1.0  0.33710854338646623  0.9828919273143789  0.26527488696059226  1.0000
  N   N1        1.0  0.8297422831646543  0.7872395348313862  0.44693489153905663  1.0000
  N   N2        1.0  0.1702577161696453  0.21276046530235151  0.5530651085021724  1.0000
  O   O1        1.0  0.7516860660538097  0.9128841803188505  0.4439398207210176  1.0000
  O   O2        1.0  0.2483139332804896  0.08711581981488713  0.5560601793202115  1.0000
  O   O3        1.0  0.8831370293685864  0.7011693918746814  0.5073030740190969  1.0000
  O   O4        1.0  0.11686297105473197  0.29883060850741805  0.4926969254195153  1.0000
  O   O5        1.0  0.928399394204457  0.5881518588473175  0.17869839857131212  1.0000
  O   O6        1.0  0.07160060512984247  0.41184814128642006  0.8213016014699169  1.0000
  O   O7        1.0  0.6856580805412432  0.5642855451878878  0.187195129141083  1.0000
  O   O8        1.0  0.3143419194073092  0.43571445417492266  0.812804870309741  1.0000
  O   O9        1.0  0.7546962149109633  0.7480806047212394  0.07447522105529727  1.0000
  O   O10       1.0  0.24530378442333625  0.2519193954124982  0.9255247789859319  1.0000
  O   O11       1.0  0.9055418952844349  0.5034359024348813  0.07495831030278191  1.0000
  O   O12       1.0  0.09445810501956836  0.49656409770365545  0.9250416897286587  1.0000
  O   O13       1.0  0.3577520869981938  0.4190555093543175  0.4037944105802964  1.0000
  O   O14       1.0  0.6422479123361056  0.58094449077942  0.5962055894609326  1.0000
  O   O15       1.0  0.9962991307008418  0.9474368070791499  0.6309664288865006  1.0000
  O   O16       1.0  0.0037008696031614625  0.0525631930593868  0.36903357114494023  1.0000
  O   O17       1.0  0.40982924741301346  0.8750381430241214  0.9237927541083354  1.0000
  O   O18       1.0  0.5901707519212859  0.12496185710961626  0.07620724593289366  1.0000
  O   O19       1.0  0.9572506752934598  0.1632681532027626  0.9673055507763253  1.0000
  O   O20       1.0  0.04274932501054337  0.8367318469357742  0.03269444925511557  1.0000
  O   O21       1.0  0.6734624563630482  0.8958321182109034  0.7527258038523452  1.0000
  O   O22       1.0  0.32653754297125126  0.10416788192283427  0.24727419618888374  1.0000
  P   P1        1.0  0.8040712899695239  0.5993361505799624  0.13371354850191022  1.0000
  P   P2        1.0  0.19592870936477555  0.40066384955377515  0.8662864515393189  1.0000
