data_image0
_chemical_formula_structural       H36C44N8O24F4
_chemical_formula_sum              "H36 C44 N8 O24 F4"
_cell_length_a       9.434278464241899
_cell_length_b       5.481929573339555
_cell_length_c       21.133754704721024
_cell_angle_alpha    90.0
_cell_angle_beta     93.51481210002585
_cell_angle_gamma    90.0

_space_group_name_H-M_alt    "P 1"
_space_group_IT_number       1

loop_
  _space_group_symop_operation_xyz
  'x, y, z'

loop_
  _atom_site_type_symbol
  _atom_site_label
  _atom_site_symmetry_multiplicity
  _atom_site_fract_x
  _atom_site_fract_y
  _atom_site_fract_z
  _atom_site_occupancy
  H   H1        1.0  0.042139453943811585  0.24554354666398856  0.23610415221523542  1.0000
  H   H2        1.0  0.45786054537041904  0.7455435472714794  0.26389584793871085  1.0000
  H   H3        1.0  0.9578605457521739  0.7544564527268179  0.7638958476511875  1.0000
  H   H4        1.0  0.5421394543255664  0.2544564521193271  0.7361041519277122  1.0000
  H   H5        1.0  0.0671233182132705  0.9137985891614289  0.1565974140680346  1.0000
  H   H6        1.0  0.432876681106537  0.41379859037811323  0.34340258561289416  1.0000
  H   H7        1.0  0.9328766814827151  0.0862014102293776  0.8434025857983884  1.0000
  H   H8        1.0  0.5671233185894485  0.5862014108368685  0.6565974142535289  1.0000
  H   H9        1.0  0.7212367348791917  0.21812341877124203  0.04065861226796523  1.0000
  H   H10       1.0  0.7787632648616439  0.7181234193787328  0.4593413880221181  1.0000
  H   H11       1.0  0.278763264811217  0.7818765806195646  0.9593413880714754  1.0000
  H   H12       1.0  0.2212367348287648  0.28187658183624886  0.5406586123173225  1.0000
  H   H13       1.0  0.5142346455934786  0.7168743099349885  0.05997496611920169  1.0000
  H   H14       1.0  0.985765354147357  0.21687430932749766  0.4400250341708815  1.0000
  H   H15       1.0  0.48576535409693006  0.283125689455818  0.9400250342202388  1.0000
  H   H16       1.0  0.014234645543051646  0.7831256900633089  0.559974966168559  1.0000
  H   H17       1.0  0.7699022060464226  0.6941854412919298  0.21294876386315928  1.0000
  H   H18       1.0  0.73009779369999  0.19418544068443896  0.28705123595390647  1.0000
  H   H19       1.0  0.23009779364956295  0.3058145580988767  0.7870512360032639  1.0000
  H   H20       1.0  0.26990220599599557  0.8058145587063675  0.7129487639125165  1.0000
  H   H21       1.0  0.9858164262406813  0.754508158972987  0.06039751484030145  1.0000
  H   H22       1.0  0.5141835735057312  0.25450815836549606  0.43960248497676424  1.0000
  H   H23       1.0  0.014183573455304235  0.24549184041781957  0.9396024850261215  1.0000
  H   H24       1.0  0.48581642619025434  0.7454918410253105  0.5603975148896587  1.0000
  H   H25       1.0  0.45807445690600446  0.3176029565333046  0.22376514295060088  1.0000
  H   H26       1.0  0.041925543470173576  0.8176029571407954  0.2762348572348934  1.0000
  H   H27       1.0  0.5419255438463516  0.6823970428575019  0.7762348574203877  1.0000
  H   H28       1.0  0.9580744562258119  0.18239704225001105  0.7237651426315297  1.0000
  H   H29       1.0  0.2072208389476503  0.20127635629726384  0.019606609939845032  1.0000
  H   H30       1.0  0.2927791614341045  0.7012763569047546  0.4803933897726317  1.0000
  H   H31       1.0  0.7927791607483351  0.7987236430935426  0.980393389926578  1.0000
  H   H32       1.0  0.7072208393238283  0.298723644310227  0.5196066101253393  1.0000
  H   H33       1.0  0.5159243603014977  0.9945586689977514  0.1541061881639844  1.0000
  H   H34       1.0  0.9840756394393378  0.4945586702144358  0.34589381212609893  1.0000
  H   H35       1.0  0.4840756393889109  0.005441330393055082  0.8458938121754562  1.0000
  H   H36       1.0  0.015924360256647608  0.5054413310005459  0.6541061877403241  1.0000
  C   C1        1.0  0.6640614053248639  0.5913590947548645  0.11811502799944608  1.0000
  C   C2        1.0  0.8359385944159716  0.09135909414737359  0.38188497229063717  1.0000
  C   C3        1.0  0.33593859436554474  0.40864090463594205  0.8818849723399945  1.0000
  C   C4        1.0  0.16406140527443697  0.908640905243433  0.6181150280488033  1.0000
  C   C5        1.0  0.7748530564458153  0.40689517078949833  0.128533733783241  1.0000
  C   C6        1.0  0.7251469443625445  0.9068951713969892  0.3714662660653727  1.0000
  C   C7        1.0  0.22514694431211754  0.5931048286013082  0.87146626611473  1.0000
  C   C8        1.0  0.2748530563953884  0.09310482799381738  0.6285337338325984  1.0000
  C   C9        1.0  0.8657391384270884  0.41575192265951955  0.18428897822455886  1.0000
  C   C10       1.0  0.6342608613193239  0.9157519214428351  0.31571102159250686  1.0000
  C   C11       1.0  0.13426086126889708  0.5842480785554622  0.8157110216418642  1.0000
  C   C12       1.0  0.3657391383766615  0.08424807794797132  0.6842889782739162  1.0000
  C   C13       1.0  0.9714662560549908  0.23790718259911825  0.19351500332772345  1.0000
  C   C14       1.0  0.5285337436858447  0.7379071832066091  0.3064849969623598  1.0000
  C   C15       1.0  0.028533743635417795  0.7620928167916883  0.8064849970117172  1.0000
  C   C16       1.0  0.47146625600456393  0.26209281618419744  0.6935150033770807  1.0000
  C   C17       1.0  0.9858012183194835  0.05404169755131034  0.14902497054467143  1.0000
  C   C18       1.0  0.5141987824888762  0.5540416963346261  0.35097502930394225  1.0000
  C   C19       1.0  0.014198782438449355  0.9459583036636715  0.8509750293532995  1.0000
  C   C20       1.0  0.48580121826905664  0.4459583030561805  0.6490249705940287  1.0000
  C   C21       1.0  0.8952433639483883  0.04565428954380655  0.09373613946557398  1.0000
  C   C22       1.0  0.6047566368599714  0.5456542901512974  0.4062638603830397  1.0000
  C   C23       1.0  0.10475663680954447  0.9543457098470001  0.906263860432397  1.0000
  C   C24       1.0  0.3952433638979615  0.45434570923950907  0.5937361395149312  1.0000
  C   C25       1.0  0.7912706316516938  0.22261067816976335  0.08344345851913111  1.0000
  C   C26       1.0  0.7087293680947186  0.722610676953079  0.4165565412979346  1.0000
  C   C27       1.0  0.20872936804429165  0.7773893230452184  0.9165565413472919  1.0000
  C   C28       1.0  0.29127063160126687  0.2773893224377275  0.5834434585684883  1.0000
  C   C29       1.0  0.36658461634162154  0.0730211715865116  0.08198509038153341  1.0000
  C   C30       1.0  0.13341538404013328  0.5730211721940025  0.41801490933094326  1.0000
  C   C31       1.0  0.633415383354364  0.926978827804295  0.9180149094848897  1.0000
  C   C32       1.0  0.8665846167177996  0.4269788290209792  0.5819850905670276  1.0000
  C   C33       1.0  0.39814328374329927  0.3038025384527942  0.17827123990783975  1.0000
  C   C34       1.0  0.10185671557650819  0.8038025372361097  0.32172875977308907  1.0000
  C   C35       1.0  0.6018567159526861  0.6961974627621875  0.8217287599585834  1.0000
  C   C36       1.0  0.8981432841194774  0.1961974621546967  0.678271240093334  1.0000
  C   C37       1.0  0.29421802688519466  0.4610187427965081  0.1580199099331826  1.0000
  C   C38       1.0  0.20578197349656013  0.9610187434039988  0.3419800897792941  1.0000
  C   C39       1.0  0.7057819738727382  0.5389812565942984  0.8419800899647882  1.0000
  C   C40       1.0  0.7942180261994253  0.038981255986807566  0.6580199100871289  1.0000
  C   C41       1.0  0.21843807180645314  0.4360987747136678  0.09688804186915721  1.0000
  C   C42       1.0  0.2815619285753017  0.9360987753211587  0.40311195784331955  1.0000
  C   C43       1.0  0.7815619289514797  0.5639012246771388  0.9031119580288136  1.0000
  C   C44       1.0  0.7184380711206837  0.06390122406964785  0.5968880420231035  1.0000
  N   N1        1.0  0.26150075034257775  0.23472638653694308  0.06314895039219803  1.0000
  N   N2        1.0  0.23849924897165287  0.7347263853202588  0.4368510497617482  1.0000
  N   N3        1.0  0.7384992493534078  0.7652736146780386  0.9368510494742249  1.0000
  N   N4        1.0  0.7615007507187558  0.2652736140705478  0.5631489505776923  1.0000
  N   N5        1.0  0.4338589644383724  0.11427727255867767  0.140360799346842  1.0000
  N   N6        1.0  0.06614103593780563  0.6142772731661685  0.3596392008386523  1.0000
  N   N7        1.0  0.5661410352576131  0.8857227268321288  0.859639200519581  1.0000
  N   N8        1.0  0.9338589648145503  0.385722726224638  0.6403607995323363  1.0000
  O   O1        1.0  0.6407457431410889  0.7498772311837167  0.15961889511061647  1.0000
  O   O2        1.0  0.8592542565997467  0.2498772324004011  0.34038110517946685  1.0000
  O   O3        1.0  0.3592542565493198  0.25012276820708973  0.8403811052288241  1.0000
  O   O4        1.0  0.14074574309623877  0.7501227688145805  0.6596188946869562  1.0000
  O   O5        1.0  0.5895059762804635  0.5798551618501624  0.0633487629990582  1.0000
  O   O6        1.0  0.9104940234659489  0.07985516124267157  0.4366512368180076  1.0000
  O   O7        1.0  0.4104940234155219  0.42014483936481933  0.9366512368673647  1.0000
  O   O8        1.0  0.08950597623003663  0.9201448381481349  0.5633487630484155  1.0000
  O   O9        1.0  0.8533752507524323  0.591745042799562  0.22883023502704125  1.0000
  O   O10       1.0  0.6466247489939803  0.09174504401624632  0.2711697647900245  1.0000
  O   O11       1.0  0.14662474894355332  0.40825495659124456  0.7711697648393817  1.0000
  O   O12       1.0  0.3533752507020052  0.9082549571987353  0.7288302350763985  1.0000
  O   O13       1.0  0.9041538008252351  0.8642996205282555  0.04957560755118281  1.0000
  O   O14       1.0  0.5958461989211772  0.3642996199207647  0.45042439226588293  1.0000
  O   O15       1.0  0.09584619887075022  0.13570037886255096  0.9504243923152401  1.0000
  O   O16       1.0  0.40415380077480834  0.6357003794700419  0.5495756076005401  1.0000
  O   O17       1.0  0.39691152695441256  0.8984165601017906  0.04733184537079699  1.0000
  O   O18       1.0  0.1030884734217655  0.39841656131847486  0.45266815481469724  1.0000
  O   O19       1.0  0.603088472741573  0.10158343928901598  0.9526681544956259  1.0000
  O   O20       1.0  0.8969115273361675  0.6015834398965069  0.5473318450832737  1.0000
  O   O21       1.0  0.12425841938809794  0.5743088574707945  0.0746786144344974  1.0000
  O   O22       1.0  0.3757415809936569  0.07430885686330359  0.4253213852779793  1.0000
  O   O23       1.0  0.8757415813698349  0.42569114192001206  0.9253213854634735  1.0000
  O   O24       1.0  0.6242584187023286  0.9256911425275028  0.5746786145884437  1.0000
  F   F1        1.0  0.25696477327457157  0.6514409337485298  0.19480364318707194  1.0000
  F   F2        1.0  0.2430352271016065  0.15144093314103899  0.30519635699842235  1.0000
  F   F3        1.0  0.7430352274777845  0.3485590656422767  0.8051963571839165  1.0000
  F   F4        1.0  0.756964772594379  0.8485590662497675  0.6948036428680007  1.0000
