data_image0
_chemical_formula_structural       H20C44O12
_chemical_formula_sum              "H20 C44 O12"
_cell_length_a       9.24418141259717
_cell_length_b       11.86899080171586
_cell_length_c       7.206630930128646
_cell_angle_alpha    90.0
_cell_angle_beta     98.1992947104079
_cell_angle_gamma    90.0

_space_group_name_H-M_alt    "P 1"
_space_group_IT_number       1

loop_
  _space_group_symop_operation_xyz
  'x, y, z'

loop_
  _atom_site_type_symbol
  _atom_site_label
  _atom_site_symmetry_multiplicity
  _atom_site_fract_x
  _atom_site_fract_y
  _atom_site_fract_z
  _atom_site_occupancy
  H   H1        1.0  0.8342870888160961  0.8389164467597814  0.8734003852084685  1.0000
  H   H2        1.0  0.6657129115945712  0.3389164468320648  0.12659961559948016  1.0000
  H   H3        1.0  0.16571291117648013  0.16108355309565184  0.1265996148002544  1.0000
  H   H4        1.0  0.3342870883980049  0.6610835530233685  0.8734003844092427  1.0000
  H   H5        1.0  0.9913994374150471  0.7341516920495295  0.4267789372221677  1.0000
  H   H6        1.0  0.508600561902694  0.23415169212181278  0.5732210633808205  1.0000
  H   H7        1.0  0.008600562577529126  0.2658483078059039  0.5732210627865552  1.0000
  H   H8        1.0  0.49139943808988235  0.7658483077336206  0.4267789366279025  1.0000
  H   H9        1.0  0.24534667752035616  0.6972625118896878  0.582788292790398  1.0000
  H   H10       1.0  0.25465332205017366  0.19726251196197112  0.41721170780597744  1.0000
  H   H11       1.0  0.75465332247222  0.30273748880827717  0.41721170721832496  1.0000
  H   H12       1.0  0.7453466779424025  0.8027374887359939  0.5827882922027453  1.0000
  H   H13       1.0  0.40350377459488357  0.8500750374278991  0.7300868419566632  1.0000
  H   H14       1.0  0.09649622497960147  0.35007503750018243  0.2699131572528339  1.0000
  H   H15       1.0  0.5964962253976926  0.14992496242753425  0.2699131580520597  1.0000
  H   H16       1.0  0.9035037750129749  0.6499249623552509  0.730086842755889  1.0000
  H   H17       1.0  0.31866085805307354  0.048948485992255646  0.723884443904599  1.0000
  H   H18       1.0  0.18133914261433784  0.5489484859199724  0.27611555550985867  1.0000
  H   H19       1.0  0.681339143032429  0.9510515138631775  0.27611555630908446  1.0000
  H   H20       1.0  0.8186608573782383  0.451051513935461  0.7238844444988642  1.0000
  C   C1        1.0  0.9054278931266398  0.9078577311259053  0.926376415482405  1.0000
  C   C2        1.0  0.5945721061911011  0.4078577311981885  0.0736235851205831  1.0000
  C   C3        1.0  0.09457210686593628  0.0921422687295281  0.07362358452631794  1.0000
  C   C4        1.0  0.4054278938014751  0.5921422686572447  0.9263764148881398  1.0000
  C   C5        1.0  0.04751358889559727  0.8913946970512853  0.015504928793258642  1.0000
  C   C6        1.0  0.4524864106788878  0.3913946971235685  0.9844950704162384  1.0000
  C   C7        1.0  0.9524864110969787  0.10860530280414814  0.9844950712154643  1.0000
  C   C8        1.0  0.5475135893136885  0.6086053035743965  0.015504929592484439  1.0000
  C   C9        1.0  0.8609342601015889  0.019913661064244057  0.9133886604879754  1.0000
  C   C10       1.0  0.6390657392161522  0.5199136609919607  0.08661134011501269  1.0000
  C   C11       1.0  0.13906573989098733  0.9800863387911892  0.08661133952074752  1.0000
  C   C12       1.0  0.36093426077642404  0.48008633886347263  0.9133886598937102  1.0000
  C   C13       1.0  0.1299004083049105  0.7852017838494494  0.05273995991254047  1.0000
  C   C14       1.0  0.3700995923585457  0.2852017839217327  0.9472600408887956  1.0000
  C   C15       1.0  0.8700995916876657  0.21479821600598395  0.9472600400961825  1.0000
  C   C16       1.0  0.6299004076340304  0.7147982159337006  0.05273995911992733  1.0000
  C   C17       1.0  0.7190124407832909  0.06885504872763523  0.8302231286514579  1.0000
  C   C18       1.0  0.7809875596313318  0.5688550486553519  0.16977687076961256  1.0000
  C   C19       1.0  0.2809875592092854  0.9311449511277982  0.16977687135726505  1.0000
  C   C20       1.0  0.21901244036124445  0.4311449512000814  0.8302231292391103  1.0000
  C   C21       1.0  0.05891352501429932  0.8029635879928583  0.49055663785033915  1.0000
  C   C22       1.0  0.4410864745562305  0.30296358806514173  0.5094433627460363  1.0000
  C   C23       1.0  0.9410864749782769  0.19703641186257498  0.5094433621583838  1.0000
  C   C24       1.0  0.5589135254363458  0.6970364117902915  0.49055663726268667  1.0000
  C   C25       1.0  0.20336948764990948  0.7830927974648292  0.5810800983153452  1.0000
  C   C26       1.0  0.2966305130135467  0.2830927975371126  0.41891990248599087  1.0000
  C   C27       1.0  0.7966305123426667  0.21690720239060407  0.4189199016933777  1.0000
  C   C28       1.0  0.7033694869790295  0.7169072023183208  0.581080097522732  1.0000
  C   C29       1.0  0.29305372495181176  0.8692421118490127  0.6628776254727998  1.0000
  C   C30       1.0  0.20694627461871806  0.3692421119212959  0.33712237512357557  1.0000
  C   C31       1.0  0.7069462750407643  0.1307578880064207  0.33712237453592303  1.0000
  C   C32       1.0  0.7930537253738581  0.6307578879341373  0.6628776248851473  1.0000
  C   C33       1.0  0.24586638957996945  0.9832946267270511  0.6597454210738708  1.0000
  C   C34       1.0  0.2541336099905604  0.48329462679933444  0.34025457952250465  1.0000
  C   C35       1.0  0.7541336104126068  0.01670537312838223  0.3402545789348521  1.0000
  C   C36       1.0  0.7458663900020159  0.5167053738986305  0.6597454204862183  1.0000
  C   C37       1.0  0.10599093230786359  0.002299340395145866  0.5717601885209451  1.0000
  C   C38       1.0  0.39400906726662144  0.5022993403228625  0.42823981068855194  1.0000
  C   C39       1.0  0.8940090676847127  0.9977006594602875  0.42823981148777773  1.0000
  C   C40       1.0  0.6059909327259548  0.4977006595325708  0.5717601893201709  1.0000
  C   C41       1.0  0.013587401616952884  0.9134441749194597  0.4886055724281089  1.0000
  C   C42       1.0  0.48641259795357694  0.413444174991743  0.5113944281682665  1.0000
  C   C43       1.0  0.9864125983756235  0.08655582493597369  0.5113944275806139  1.0000
  C   C44       1.0  0.5135874020389993  0.5865558248636904  0.4886055718404564  1.0000
  O   O1        1.0  0.09516708090243982  0.6884829794306234  0.01819712032331201  1.0000
  O   O2        1.0  0.40483291866809  0.18848297950290682  0.9818028802730634  1.0000
  O   O3        1.0  0.9048329190901366  0.31151702042480983  0.9818028796854109  1.0000
  O   O4        1.0  0.5951670813244861  0.8115170203525266  0.01819711973565949  1.0000
  O   O5        1.0  0.6089397986964403  0.026258743915695316  0.7513624549674636  1.0000
  O   O6        1.0  0.8910602017181823  0.526258743843412  0.2486375444536069  1.0000
  O   O7        1.0  0.3910602012961359  0.9737412567822696  0.24863754504125946  1.0000
  O   O8        1.0  0.10893979827439397  0.473741256854553  0.751362455555116  1.0000
  O   O9        1.0  0.2699608930030258  0.813075846229898  0.14364165347443036  1.0000
  O   O10       1.0  0.23003910766043045  0.31307584630218144  0.8563583473269056  1.0000
  O   O11       1.0  0.7300391069895505  0.18692415362553524  0.8563583465342924  1.0000
  O   O12       1.0  0.7699608923321458  0.6869241535532519  0.14364165268181728  1.0000
