data_image0
_chemical_formula_structural       H88C96N16O24Br8
_chemical_formula_sum              "H88 C96 N16 O24 Br8"
_cell_length_a       21.22853090809727
_cell_length_b       3.9387419763362086
_cell_length_c       28.770631460344905
_cell_angle_alpha    90.0
_cell_angle_beta     90.0
_cell_angle_gamma    90.0

_space_group_name_H-M_alt    "P 1"
_space_group_IT_number       1

loop_
  _space_group_symop_operation_xyz
  'x, y, z'

loop_
  _atom_site_type_symbol
  _atom_site_label
  _atom_site_symmetry_multiplicity
  _atom_site_fract_x
  _atom_site_fract_y
  _atom_site_fract_z
  _atom_site_occupancy
  H   H1        1.0  0.9950596911980722  0.1721773104393149  0.5172277150228946  1.0000
  H   H2        1.0  0.004940308420494467  0.8278226904908784  0.017227715028888632  1.0000
  H   H3        1.0  0.49505969138878886  0.32782269002578174  0.5172277150228946  1.0000
  H   H4        1.0  0.5049403087008419  0.6721773109044116  0.017227715028888632  1.0000
  H   H5        1.0  0.07667791035785328  0.26111005650506025  0.5211537769223592  1.0000
  H   H6        1.0  0.9233220897317774  0.7388899418862513  0.02115377692835331  1.0000
  H   H7        1.0  0.5766779106382007  0.2388899414211547  0.5211537769223592  1.0000
  H   H8        1.0  0.4233220894514301  0.7611100569701568  0.02115377692835331  1.0000
  H   H9        1.0  0.9260114713120273  0.4300016020789044  0.3761268971421551  1.0000
  H   H10       1.0  0.07398852830653933  0.5699983988512888  0.876126897136161  1.0000
  H   H11       1.0  0.426011471502744  0.0699983983861922  0.3761268971421551  1.0000
  H   H12       1.0  0.5739885285868868  0.9300016025440011  0.876126897136161  1.0000
  H   H13       1.0  0.11788303113549271  0.7993647309003739  0.3757275604082417  1.0000
  H   H14       1.0  0.882116968483074  0.20063526749093774  0.8757275604022475  1.0000
  H   H15       1.0  0.6178830314158402  0.7006352679560344  0.3757275604082417  1.0000
  H   H16       1.0  0.38211696867379064  0.29936473043527717  0.8757275604022475  1.0000
  H   H17       1.0  0.1289299378204273  0.5855450607976395  0.4564061253955732  1.0000
  H   H18       1.0  0.8710700622692035  0.4144549401325538  0.9564061253895791  1.0000
  H   H19       1.0  0.6289299381007748  0.9144549405976504  0.4564061253955732  1.0000
  H   H20       1.0  0.371070061988856  0.08554506033254285  0.9564061253895791  1.0000
  H   H21       1.0  0.2683930260961558  0.7517483063854437  0.16834444272367516  1.0000
  H   H22       1.0  0.7316069739934751  0.2482516920058679  0.668344442717681  1.0000
  H   H23       1.0  0.768393025905439  0.7482516924709646  0.16834444272367516  1.0000
  H   H24       1.0  0.2316069741841917  0.25174830845922874  0.668344442717681  1.0000
  H   H25       1.0  0.18553859459476982  0.8008400496785298  0.16679941858816852  1.0000
  H   H26       1.0  0.814461405494861  0.19915994871278178  0.6667994185821745  1.0000
  H   H27       1.0  0.6855385948751173  0.6991599491778785  0.16679941858816852  1.0000
  H   H28       1.0  0.31446140521451355  0.3008400517523149  0.6667994185821745  1.0000
  H   H29       1.0  0.34109457085596373  0.02516431911394125  0.3076664793471962  1.0000
  H   H30       1.0  0.6589054292336671  0.9748356792773702  0.8076664793412022  1.0000
  H   H31       1.0  0.841094570665247  0.47483568135115534  0.3076664793471962  1.0000
  H   H32       1.0  0.15890542942438377  0.5251643195790379  0.8076664793412022  1.0000
  H   H33       1.0  0.14426285282095827  0.3038918155063806  0.31480007599010906  1.0000
  H   H34       1.0  0.8557371472686727  0.6961081828849309  0.814800075984115  1.0000
  H   H35       1.0  0.6442628526302416  0.19610818495871604  0.31480007599010906  1.0000
  H   H36       1.0  0.3557371469883251  0.8038918159714772  0.814800075984115  1.0000
  H   H37       1.0  0.13167823068405388  0.08330676951456938  0.2344703392867113  1.0000
  H   H38       1.0  0.868321769405577  0.9166932314156239  0.7344703392807173  1.0000
  H   H39       1.0  0.6316782304933372  0.4166932309505273  0.2344703392867113  1.0000
  H   H40       1.0  0.36832176959629365  0.5833067674407844  0.7344703392807173  1.0000
  H   H41       1.0  0.6440818287988406  0.3133438131806812  0.5939317450697048  1.0000
  H   H42       1.0  0.3559181712907903  0.6866561852106303  0.09393174507569887  1.0000
  H   H43       1.0  0.14408182898955718  0.18665618728441546  0.5939317450697048  1.0000
  H   H44       1.0  0.8559181711000737  0.8133438136457779  0.09393174507569887  1.0000
  H   H45       1.0  0.9244085695310557  0.15494261712661803  0.4543222816647661  1.0000
  H   H46       1.0  0.07559143008751094  0.8450573812646934  0.954322281658772  1.0000
  H   H47       1.0  0.4244085697217723  0.3450573807995969  0.4543222816647661  1.0000
  H   H48       1.0  0.5755914303678584  0.6549426175917147  0.954322281658772  1.0000
  H   H49       1.0  0.7881363200511556  0.6723698926994509  0.4505853073773512  1.0000
  H   H50       1.0  0.21186368003847517  0.3276301082307423  0.9505853073713572  1.0000
  H   H51       1.0  0.28813632024187236  0.8276301061569572  0.4505853073773512  1.0000
  H   H52       1.0  0.7118636798477584  0.1723698922343543  0.9505853073713572  1.0000
  H   H53       1.0  0.6895456917565861  0.378360610812652  0.4735027981146954  1.0000
  H   H54       1.0  0.3104543083330447  0.6216393901175412  0.9735027981087013  1.0000
  H   H55       1.0  0.1895456914762386  0.12163938965244464  0.4735027981146954  1.0000
  H   H56       1.0  0.8104543086133923  0.8783606087388669  0.9735027981087013  1.0000
  H   H57       1.0  0.7266923729571779  0.6271725705418838  0.6169072533031996  1.0000
  H   H58       1.0  0.2733076271324529  0.3728274303883094  0.11690725330919371  1.0000
  H   H59       1.0  0.22669237267683046  0.8728274283145243  0.6169072533031996  1.0000
  H   H60       1.0  0.7733076269417363  0.12717257007678726  0.11690725330919371  1.0000
  H   H61       1.0  0.8258590038989838  0.8971517228673549  0.5942456259107438  1.0000
  H   H62       1.0  0.1741409957195829  0.10284827806283839  0.094245625916738  1.0000
  H   H63       1.0  0.3258590040897004  0.6028482759890533  0.5942456259107438  1.0000
  H   H64       1.0  0.6741409959999304  0.3971517224022582  0.094245625916738  1.0000
  H   H65       1.0  0.6052422339361783  0.7294683371650101  0.09297169524022444  1.0000
  H   H66       1.0  0.3947577661534525  0.2705316637651831  0.5929716952342304  1.0000
  H   H67       1.0  0.10524223412689501  0.7705316616913981  0.09297169524022444  1.0000
  H   H68       1.0  0.8947577659627358  0.22946833669991354  0.5929716952342304  1.0000
  H   H69       1.0  0.3428243669572094  0.7313170721275307  0.23116156832243093  1.0000
  H   H70       1.0  0.6571756331324214  0.2686829288026626  0.7311615683164369  1.0000
  H   H71       1.0  0.8428243667664927  0.7686829292677592  0.23116156832243093  1.0000
  H   H72       1.0  0.15717563332313808  0.2313170716624341  0.7311615683164369  1.0000
  H   H73       1.0  0.4301311564860624  0.3744687260199703  0.09160955551610973  1.0000
  H   H74       1.0  0.5698688436035684  0.6255312723713413  0.5916095555101156  1.0000
  H   H75       1.0  0.9301311562953458  0.12553127444512635  0.09160955551610973  1.0000
  H   H76       1.0  0.06986884332322088  0.8744687264850669  0.5916095555101156  1.0000
  H   H77       1.0  0.5253687199685565  0.06310221169430177  0.06854685663462869  1.0000
  H   H78       1.0  0.47463128012107436  0.9368977866970098  0.5685468566286347  1.0000
  H   H79       1.0  0.025368719688208974  0.4368977862319131  0.06854685663462869  1.0000
  H   H80       1.0  0.9746312799303577  0.5631022121593985  0.5685468566286347  1.0000
  H   H81       1.0  0.5748331414372824  0.9275888042299465  0.21260013491294685  1.0000
  H   H82       1.0  0.4251668581812842  0.07241119670024679  0.7126001349069527  1.0000
  H   H83       1.0  0.07483314162799913  0.5724111971653435  0.21260013491294685  1.0000
  H   H84       1.0  0.9251668584616316  0.4275888037648498  0.7126001349069527  1.0000
  H   H85       1.0  0.479618113664022  0.2530817392936307  0.23572446747815307  1.0000
  H   H86       1.0  0.5203818864256089  0.7469182616365626  0.7357244674721589  1.0000
  H   H87       1.0  0.9796181134733053  0.24691826117146595  0.23572446747815307  1.0000
  H   H88       1.0  0.020381886616325503  0.7530817397587274  0.7357244674721589  1.0000
  C   C1        1.0  0.9719060583759102  0.46825150037260777  0.3923738304305076  1.0000
  C   C2        1.0  0.028093941713720552  0.5317484980187038  0.8923738304245135  1.0000
  C   C3        1.0  0.4719060580955628  0.031748497553607175  0.3923738304305076  1.0000
  C   C4        1.0  0.528093941994068  0.9682515008377044  0.8923738304245135  1.0000
  C   C5        1.0  0.02089319425447487  0.6293317574221351  0.36952020203843483  1.0000
  C   C6        1.0  0.979106805835156  0.3706682435080581  0.8695202020324407  1.0000
  C   C7        1.0  0.5208931945348224  0.8706682439731548  0.36952020203843483  1.0000
  C   C8        1.0  0.4791068055548085  0.12933175695703847  0.8695202020324407  1.0000
  C   C9        1.0  0.07863367781909401  0.6708742349398431  0.39262019450526797  1.0000
  C   C10       1.0  0.9213663222705368  0.3291257659903501  0.8926201944992739  1.0000
  C   C11       1.0  0.5786336776283774  0.8291257664554467  0.39262019450526797  1.0000
  C   C12       1.0  0.4213663224612535  0.17087423447474656  0.8926201944992739  1.0000
  C   C13       1.0  0.08506969737181237  0.5494704154277058  0.4374350252738292  1.0000
  C   C14       1.0  0.9149303022467543  0.4505295829636057  0.9374350252678351  1.0000
  C   C15       1.0  0.5850696976521599  0.9505295834287023  0.4374350252738292  1.0000
  C   C16       1.0  0.414930302437471  0.04947041750149099  0.9374350252678351  1.0000
  C   C17       1.0  0.03338265719224554  0.38412433946926156  0.45899231958816694  1.0000
  C   C18       1.0  0.9666173424263211  0.61587565892205  0.9589923195821729  1.0000
  C   C19       1.0  0.5333826574725931  0.11587565845695336  0.45899231958816694  1.0000
  C   C20       1.0  0.46661734261703774  0.8841243399343581  0.9589923195821729  1.0000
  C   C21       1.0  0.2939334481982426  0.0453595947826438  0.29283128219178123  1.0000
  C   C22       1.0  0.7060665518913882  0.9546404036086678  0.7928312821857872  1.0000
  C   C23       1.0  0.7939334480075259  0.4546404031435711  0.29283128219178123  1.0000
  C   C24       1.0  0.2060665520821049  0.5453595952477404  0.7928312821857872  1.0000
  C   C25       1.0  0.24416339936283313  0.18516070978540977  0.3174049082859624  1.0000
  C   C26       1.0  0.7558366002557335  0.8148392911447835  0.8174049082799684  1.0000
  C   C27       1.0  0.7441633996431806  0.31483929067968686  0.3174049082859624  1.0000
  C   C28       1.0  0.25583660044645024  0.6851607102505064  0.8174049082799684  1.0000
  C   C29       1.0  0.18449792625574812  0.1971709735407429  0.2964046531878855  1.0000
  C   C30       1.0  0.8155020738338827  0.8028290273894504  0.796404653529468  1.0000
  C   C31       1.0  0.6844979265360956  0.30282902692435376  0.2964046531878855  1.0000
  C   C32       1.0  0.3155020735535352  0.6971709740058395  0.796404653529468  1.0000
  C   C33       1.0  0.17725233066244542  0.07352957917527693  0.25175724349267264  1.0000
  C   C34       1.0  0.8227476694271854  0.9264704217549163  0.7517572434866786  1.0000
  C   C35       1.0  0.6772523309427929  0.4264704212898197  0.25175724349267264  1.0000
  C   C36       1.0  0.3227476691468379  0.5735295796403735  0.7517572434866786  1.0000
  C   C37       1.0  0.23014698667331887  0.9381533779567856  0.22808676511131853  1.0000
  C   C38       1.0  0.7698530129452478  0.06184662297340765  0.7280867651053244  1.0000
  C   C39       1.0  0.7301469869536664  0.5618466208996226  0.22808676511131853  1.0000
  C   C40       1.0  0.2698530131359645  0.438153377491689  0.7280867651053244  1.0000
  C   C41       1.0  0.7741967204961471  0.66370485441945  0.4869761280460974  1.0000
  C   C42       1.0  0.22580327912241963  0.3362951439718616  0.9869761280401033  1.0000
  C   C43       1.0  0.27419672068686374  0.8362951444369582  0.4869761280460974  1.0000
  C   C44       1.0  0.7258032794027671  0.16370485649323502  0.9869761280401033  1.0000
  C   C45       1.0  0.7189746283469041  0.4997277714116471  0.4997350023344826  1.0000
  C   C46       1.0  0.2810253717427268  0.5002722295185462  0.9997350023284884  1.0000
  C   C47       1.0  0.21897462806655657  0.0002722290534495459  0.4997350023344826  1.0000
  C   C48       1.0  0.7810253715520101  0.9997277718767438  0.9997350023284884  1.0000
  C   C49       1.0  0.7020490261205649  0.480220438750199  0.5468290993781126  1.0000
  C   C50       1.0  0.2979509734980017  0.5197795621799942  0.04682909938410675  1.0000
  C   C51       1.0  0.2020490263112816  0.019779561714897656  0.5468290993781126  1.0000
  C   C52       1.0  0.7979509737783491  0.9802204392152957  0.04682909938410675  1.0000
  C   C53       1.0  0.7406372489018004  0.6317418543660406  0.5805845364577116  1.0000
  C   C54       1.0  0.2593627511878304  0.368258144025271  0.08058453646370561  1.0000
  C   C55       1.0  0.2406372486214529  0.8682581444903675  0.5805845364577116  1.0000
  C   C56       1.0  0.7593627514681779  0.13174185390094395  0.08058453646370561  1.0000
  C   C57       1.0  0.795920642985013  0.7904418742595609  0.5674343516756545  1.0000
  C   C58       1.0  0.2040793566335537  0.20955812413175062  0.06743435168164855  1.0000
  C   C59       1.0  0.29592064317572964  0.7095581245968473  0.5674343516756545  1.0000
  C   C60       1.0  0.7040793569139011  0.2904418737944643  0.06743435168164855  1.0000
  C   C61       1.0  0.8135925860706698  0.8110220317024714  0.5206341070631625  1.0000
  C   C62       1.0  0.1864074140189611  0.18897796922772173  0.020634107069156526  1.0000
  C   C63       1.0  0.31359258626138636  0.6889779696928184  0.5206341070631625  1.0000
  C   C64       1.0  0.6864074138282444  0.3110220312373749  0.020634107069156526  1.0000
  C   C65       1.0  0.8716477131699224  0.9902704654007685  0.5075037185097973  1.0000
  C   C66       1.0  0.12835228691970846  0.009729532990543082  0.007503718515791378  1.0000
  C   C67       1.0  0.3716477128895749  0.5097295334556396  0.5075037185097973  1.0000
  C   C68       1.0  0.6283522867289918  0.49027046493567183  0.007503718515791378  1.0000
  C   C69       1.0  0.46185037874006973  0.2821429727249392  0.118396533795062  1.0000
  C   C70       1.0  0.5381496208784969  0.7178570282052541  0.618396533789068  1.0000
  C   C71       1.0  0.9618503790204173  0.21785702774015744  0.118396533795062  1.0000
  C   C72       1.0  0.038149621069213616  0.7821429731900358  0.618396533789068  1.0000
  C   C73       1.0  0.5149456798176433  0.10304085731899609  0.10511399981499556  1.0000
  C   C74       1.0  0.4850543202719876  0.8969591436111971  0.6051139998090015  1.0000
  C   C75       1.0  0.014945679537295763  0.39695914314610053  0.10511399981499556  1.0000
  C   C76       1.0  0.985054320552335  0.6030408577840928  0.6051139998090015  1.0000
  C   C77       1.0  0.5560875314973968  0.9747619755410646  0.13900246560497484  1.0000
  C   C78       1.0  0.44391246859223404  0.02523802538912865  0.6390024655989808  1.0000
  C   C79       1.0  0.05608753168811339  0.5252380258542253  0.13900246560497484  1.0000
  C   C80       1.0  0.9439124684015174  0.47476197507596796  0.6390024655989808  1.0000
  C   C81       1.0  0.5436296915674972  0.03381987213183966  0.18623208765456017  1.0000
  C   C82       1.0  0.45637030852213356  0.9661801262594719  0.6862320876485661  1.0000
  C   C83       1.0  0.04362969128714972  0.466180128333257  0.18623208765456017  1.0000
  C   C84       1.0  0.9563703088024812  0.5338198725969362  0.6862320876485661  1.0000
  C   C85       1.0  0.49032724002722616  0.21520928892846183  0.19908474299198903  1.0000
  C   C86       1.0  0.5096727600624046  0.7847907120017314  0.699084742985995  1.0000
  C   C87       1.0  0.9903272398365096  0.28479071153663477  0.19908474299198903  1.0000
  C   C88       1.0  0.009672760253121287  0.7152092868546768  0.699084742985995  1.0000
  C   C89       1.0  0.44855211183586674  0.34281154696403593  0.16544046718475944  1.0000
  C   C90       1.0  0.551447888253764  0.6571884539661573  0.6654404671787654  1.0000
  C   C91       1.0  0.9485521116451501  0.1571884535010607  0.16544046718475944  1.0000
  C   C92       1.0  0.05144788844448075  0.8428115448902509  0.6654404671787654  1.0000
  C   C93       1.0  0.39254676058725496  0.5395544269637116  0.1789403109589685  1.0000
  C   C94       1.0  0.607453239502376  0.46044557396648167  0.6789403109529744  1.0000
  C   C95       1.0  0.8925467603965382  0.9604455744315783  0.1789403109589685  1.0000
  C   C96       1.0  0.10745323969309256  0.03955442649861496  0.6789403109529744  1.0000
  N   N1        1.0  0.9782216555587968  0.34854458815730666  0.4357284409026215  1.0000
  N   N2        1.0  0.021778344530833965  0.6514554127728865  0.9357284408966274  1.0000
  N   N3        1.0  0.47822165574951353  0.15145541230778997  0.4357284409026215  1.0000
  N   N4        1.0  0.5217783443401173  0.8485445860835216  0.9357284408966274  1.0000
  N   N5        1.0  0.03600845217736805  0.2555821010992956  0.5023185966536566  1.0000
  N   N6        1.0  0.9639915474411986  0.744417897292016  0.0023185966596508028  1.0000
  N   N7        1.0  0.5360084524577156  0.24441789936580108  0.5023185966536566  1.0000
  N   N8        1.0  0.4639915476319153  0.7555821015643922  0.0023185966596508028  1.0000
  N   N9        1.0  0.28700895490021927  0.9243259756219262  0.24955183343459114  1.0000
  N   N10       1.0  0.7129910451894115  0.07567402276938531  0.7495518334285971  1.0000
  N   N11       1.0  0.7870089547095026  0.575674023234482  0.24955183343459114  1.0000
  N   N12       1.0  0.21299104490906404  0.4243259776957113  0.7495518334285971  1.0000
  N   N13       1.0  0.22711996326420067  0.8184411518620465  0.18422149222916154  1.0000
  N   N14       1.0  0.7728800363543661  0.18155884906814682  0.6842214922231674  1.0000
  N   N15       1.0  0.7271199635445481  0.6815588495332434  0.18422149222916154  1.0000
  N   N16       1.0  0.2728800365450827  0.31844115139694984  0.6842214922231674  1.0000
  O   O1        1.0  0.6489340774280997  0.309919816361132  0.5588137490885389  1.0000
  O   O2        1.0  0.3510659226615312  0.6900801845690613  0.058813749094532894  1.0000
  O   O3        1.0  0.1489340776188163  0.19008018410396463  0.5588137490885389  1.0000
  O   O4        1.0  0.8510659224708145  0.8099198168262286  0.058813749094532894  1.0000
  O   O5        1.0  0.8829823618576571  0.0041045161366569365  0.46271006523957636  1.0000
  O   O6        1.0  0.11701763776090962  0.9958954847935363  0.9627100652335823  1.0000
  O   O7        1.0  0.3829823620483737  0.49589548432843966  0.46271006523957636  1.0000
  O   O8        1.0  0.6170176380412571  0.5041045166017535  0.9627100652335823  1.0000
  O   O9        1.0  0.9080698666080146  0.1215182799166798  0.5371638089105302  1.0000
  O   O10       1.0  0.09193013348161634  0.8784817184746317  0.03716380891652428  1.0000
  O   O11       1.0  0.40806986632766695  0.3784817180095351  0.5371638089105302  1.0000
  O   O12       1.0  0.5919301332908996  0.6215182803817764  0.03716380891652428  1.0000
  O   O13       1.0  0.6076290420586694  0.7911224037321956  0.12703337134040732  1.0000
  O   O14       1.0  0.3923709580309614  0.2088775971979977  0.6270333713344132  1.0000
  O   O15       1.0  0.10762904224938612  0.7088775976630943  0.12703337134040732  1.0000
  O   O16       1.0  0.8923709578402447  0.29112240326709893  0.6270333713344132  1.0000
  O   O17       1.0  0.38401482021021666  0.5796048849393154  0.22381086000407188  1.0000
  O   O18       1.0  0.6159851798794141  0.42039511599087787  0.7238108599980778  1.0000
  O   O19       1.0  0.8840148204905642  0.9203951164559745  0.22381086000407188  1.0000
  O   O20       1.0  0.11598517959906669  0.07960488447421878  0.7238108599980778  1.0000
  O   O21       1.0  0.3546569624904306  0.6645524143815029  0.14975747494241295  1.0000
  O   O22       1.0  0.6453430375992002  0.33544758654869034  0.6497574749364189  1.0000
  O   O23       1.0  0.8546569627707781  0.8354475844749053  0.14975747494241295  1.0000
  O   O24       1.0  0.14534303731885273  0.1645524139164063  0.6497574749364189  1.0000
  Br  Br1       1.0  0.00849603209853798  0.7864061516619649  0.3077983308154279  1.0000
  Br  Br2       1.0  0.9915039675200287  0.21359384926822833  0.8077983308094339  1.0000
  Br  Br3       1.0  0.5084960323788855  0.713593849733325  0.3077983308154279  1.0000
  Br  Br4       1.0  0.49150396771074534  0.2864061511968683  0.8077983308094339  1.0000
  Br  Br5       1.0  0.25792044318580465  0.34992520410845823  0.37865588021645036  1.0000
  Br  Br6       1.0  0.7420795564327619  0.650074796821735  0.8786558802104563  1.0000
  Br  Br7       1.0  0.7579204434661522  0.1500747963566384  0.37865588021645036  1.0000
  Br  Br8       1.0  0.24207955662347866  0.8499252045735549  0.8786558802104563  1.0000
