data_image0
_chemical_formula_structural       H24C20N4O8
_chemical_formula_sum              "H24 C20 N4 O8"
_cell_length_a       4.012022082008062
_cell_length_b       9.284008479655427
_cell_length_c       14.021030967294447
_cell_angle_alpha    94.02349245219207
_cell_angle_beta     94.61040643406305
_cell_angle_gamma    90.91209467234384

_space_group_name_H-M_alt    "P 1"
_space_group_IT_number       1

loop_
  _space_group_symop_operation_xyz
  'x, y, z'

loop_
  _atom_site_type_symbol
  _atom_site_label
  _atom_site_symmetry_multiplicity
  _atom_site_fract_x
  _atom_site_fract_y
  _atom_site_fract_z
  _atom_site_occupancy
  H   H1        1.0  0.5433168636134728  0.35113863823423924  0.18575730096809476  1.0000
  H   H2        1.0  0.45668313669385974  0.648861361873075  0.8142426992691827  1.0000
  H   H3        1.0  0.23547408023452385  0.4466481465953134  0.0644155897488068  1.0000
  H   H4        1.0  0.7645259200728087  0.5533518535120007  0.9355844104884706  1.0000
  H   H5        1.0  0.22173604656128496  0.6361866646323444  0.05546582282796345  1.0000
  H   H6        1.0  0.7782639536913312  0.36381333439493374  0.9445341773576591  1.0000
  H   H7        1.0  0.6008351951287182  0.8021390367078938  0.16456084012019873  1.0000
  H   H8        1.0  0.39916480517861425  0.19786096339942044  0.8354391601170787  1.0000
  H   H9        1.0  0.9987941777329846  0.8229481918777252  0.3084409264869934  1.0000
  H   H10       1.0  0.0012058225849131364  0.1770518082299179  0.6915590730373343  1.0000
  H   H11       1.0  0.9346751333926547  0.3597181529746991  0.3193069556771135  1.0000
  H   H12       1.0  0.06532486435939437  0.6402818460527907  0.6806930444479969  1.0000
  H   H13       1.0  0.0859618241737374  0.6590986691592577  0.47991129916380676  1.0000
  H   H14       1.0  0.9140381761441602  0.3409013309483853  0.520088700360521  1.0000
  H   H15       1.0  0.44287242189419296  0.6709331280639573  0.4148023766997884  1.0000
  H   H16       1.0  0.5571275784237049  0.3290668720436859  0.5851976228245394  1.0000
  H   H17       1.0  0.29209624951910595  0.499112433298432  0.4424299204821729  1.0000
  H   H18       1.0  0.7079037507882265  0.5008875668088821  0.5575700797551045  1.0000
  H   H19       1.0  0.41652163751094334  0.09617916213317114  0.23831627642074701  1.0000
  H   H20       1.0  0.5834783628069543  0.9038208379744721  0.7616837231035807  1.0000
  H   H21       1.0  0.7105873695849089  0.9032926702667504  0.4358178681178667  1.0000
  H   H22       1.0  0.28941263072242374  0.09670732984056388  0.5641821321194107  1.0000
  H   H23       1.0  0.11003738024396192  0.9385766340326823  0.09638280204047939  1.0000
  H   H24       1.0  0.8899626200739357  0.0614233660749607  0.9036171974838484  1.0000
  C   C1        1.0  0.5426727150956963  0.5701190990695005  0.16438643137233833  1.0000
  C   C2        1.0  0.45732728521163624  0.4298809010378136  0.8356135688649391  1.0000
  C   C3        1.0  0.677018410767347  0.7069268925266091  0.2009037550084538  1.0000
  C   C4        1.0  0.32298158953998557  0.29307310758070504  0.7990962452288237  1.0000
  C   C5        1.0  0.897801972316055  0.7168998219916511  0.2813531942556  1.0000
  C   C6        1.0  0.10219802799127764  0.283100178115663  0.7186468059816774  1.0000
  C   C7        1.0  0.9963959879260625  0.593347796332799  0.32964941246872875  1.0000
  C   C8        1.0  0.003604012381269909  0.4066522037745151  0.6703505877685487  1.0000
  C   C9        1.0  0.8685191702356586  0.4621336060044972  0.2898998807310501  1.0000
  C   C10       1.0  0.13148083001695737  0.5378663930227809  0.7101001194545725  1.0000
  C   C11       1.0  0.21660681102649101  0.6058986473047486  0.42141546423625925  1.0000
  C   C12       1.0  0.7833931892808417  0.3941013528025656  0.5785845360010181  1.0000
  C   C13       1.0  0.4210351610186428  0.08419305485495905  0.37868908073775237  1.0000
  C   C14       1.0  0.5789648392886897  0.9158069452523551  0.6213109194995251  1.0000
  C   C15       1.0  0.5451653336412449  0.9906483345391194  0.45512515842446793  1.0000
  C   C16       1.0  0.45483466667665273  0.009351665568523791  0.54487484109986  1.0000
  C   C17       1.0  0.17323389697489705  0.1716116733693842  0.07548912635100247  1.0000
  C   C18       1.0  0.8267661033324355  0.82838832673793  0.924510873886275  1.0000
  C   C19       1.0  0.06755806857854654  0.019814559306954024  0.0443609451546128  1.0000
  C   C20       1.0  0.9324419317393511  0.9801854408006891  0.955639054369715  1.0000
  N   N1        1.0  0.6517223814592628  0.4528578683630606  0.21003734917678155  1.0000
  N   N2        1.0  0.3482776188480699  0.5471421317442535  0.7899626510604959  1.0000
  N   N3        1.0  0.3167644247815067  0.5501453258831883  0.08958010078986328  1.0000
  N   N4        1.0  0.6832355755363909  0.4498546742244548  0.9104198987344646  1.0000
  O   O1        1.0  0.26432386263353674  0.19554029970951795  0.394114650091421  1.0000
  O   O2        1.0  0.7356761351732288  0.8044597003980077  0.6058853500853442  1.0000
  O   O3        1.0  0.49714769005940035  0.031087760195472745  0.2923861148219559  1.0000
  O   O4        1.0  0.5028523102584973  0.9689122399121702  0.7076138847023719  1.0000
  O   O5        1.0  0.0942539727253642  0.2719415680528691  0.02229445304088344  1.0000
  O   O6        1.0  0.9057460275378171  0.7280584309747379  0.9777055464317895  1.0000
  O   O7        1.0  0.35015734976512847  0.1925630538144725  0.15633031205613032  1.0000
  O   O8        1.0  0.6498426505527692  0.8074369462931706  0.8436696874681975  1.0000
