data_image0
_chemical_formula_structural       H96C72N8O24Cl4Br4
_chemical_formula_sum              "H96 C72 N8 O24 Cl4 Br4"
_cell_length_a       8.387680940979655
_cell_length_b       14.757351182864507
_cell_length_c       16.855930437170002
_cell_angle_alpha    71.87011490273422
_cell_angle_beta     88.9830808284546
_cell_angle_gamma    87.8039594644229

_space_group_name_H-M_alt    "P 1"
_space_group_IT_number       1

loop_
  _space_group_symop_operation_xyz
  'x, y, z'

loop_
  _atom_site_type_symbol
  _atom_site_label
  _atom_site_symmetry_multiplicity
  _atom_site_fract_x
  _atom_site_fract_y
  _atom_site_fract_z
  _atom_site_occupancy
  H   H1        1.0  0.1840167774588342  0.8372367387180975  0.785613210626133  1.0000
  H   H2        1.0  0.8159832223261501  0.16276326110107167  0.21438678949906653  1.0000
  H   H3        1.0  0.14170151095540665  0.8016447832192931  0.890389437914917  1.0000
  H   H4        1.0  0.858298488789368  0.19835521727771427  0.10961056221107175  1.0000
  H   H5        1.0  0.19269446548408672  0.9148582898040587  0.840750569936322  1.0000
  H   H6        1.0  0.8073055343008976  0.08514171001511055  0.15924943018887736  1.0000
  H   H7        1.0  0.6350093967927197  0.8498986248898155  0.01847967232057599  1.0000
  H   H8        1.0  0.36499060299226455  0.15010137492935366  0.9815203278046235  1.0000
  H   H9        1.0  0.5104591628197822  0.6931092012856176  0.07956639005937219  1.0000
  H   H10       1.0  0.48954083811741705  0.30689079920828755  0.9204336100665163  1.0000
  H   H11       1.0  0.4730650396001381  0.6768383489176966  0.8280289992026832  1.0000
  H   H12       1.0  0.5269349601848464  0.3231616509014726  0.17197100092251627  1.0000
  H   H13       1.0  0.5870670077851511  0.8387964038918503  0.7763269458031663  1.0000
  H   H14       1.0  0.4129329920069079  0.16120359614989552  0.22367305369776683  1.0000
  H   H15       1.0  0.3408507033787305  0.5687739064402305  0.04263517940524758  1.0000
  H   H16       1.0  0.6591492975655433  0.43122609427625147  0.9573648200963746  1.0000
  H   H17       1.0  0.4524421774045226  0.5288259982750391  0.882495582840791  1.0000
  H   H18       1.0  0.547557822340252  0.4711740022219683  0.11750441728519778  1.0000
  H   H19       1.0  0.27373884844322327  0.44180544249306397  0.830183825759058  1.0000
  H   H20       1.0  0.726261151341761  0.5581945573261052  0.16981617436614152  1.0000
  H   H21       1.0  0.04013943532837589  0.3393319966931905  0.8485282186211629  1.0000
  H   H22       1.0  0.9598605644566084  0.6606680031259786  0.15147178150403656  1.0000
  H   H23       1.0  0.21125931777094725  0.44983136648556776  0.08229306219667178  1.0000
  H   H24       1.0  0.7887406820211117  0.5501686335561782  0.9177069373042614  1.0000
  H   H25       1.0  0.7518740268959637  0.17087079914767175  0.9636816809086153  1.0000
  H   H26       1.0  0.2481259728960951  0.8291292008940743  0.03631831859231786  1.0000
  H   H27       1.0  0.9444203088844904  0.19119534576047512  0.914884765794906  1.0000
  H   H28       1.0  0.05557969209291856  0.8088046540555917  0.0851152343301932  1.0000
  H   H29       1.0  0.7824652840797098  0.2777068080515865  0.8786485475937957  1.0000
  H   H30       1.0  0.21753471570527438  0.7222931917675827  0.12135145253140382  1.0000
  H   H31       1.0  0.9228269907047105  0.3330317847412824  0.2332339628422079  1.0000
  H   H32       1.0  0.0771730090802737  0.6669682150778867  0.7667660372829915  1.0000
  H   H33       1.0  0.0017158675191863934  0.4438797173126493  0.16837291788543232  1.0000
  H   H34       1.0  0.9982841322657979  0.5561202825065199  0.8316270822397671  1.0000
  H   H35       1.0  0.12973795512215283  0.3392773713113636  0.2019848698284657  1.0000
  H   H36       1.0  0.8702620446226218  0.6607226291856437  0.7980151302975231  1.0000
  H   H37       1.0  0.6466390118093335  0.9848372200684582  0.90088637883143  1.0000
  H   H38       1.0  0.35336098797565085  0.015162779750710932  0.09911362129376958  1.0000
  H   H39       1.0  0.6698373426856944  0.9715702905969887  0.7998358279861171  1.0000
  H   H40       1.0  0.3301626582917146  0.028429709219077934  0.20016417213898202  1.0000
  H   H41       1.0  0.9276758739744013  0.9951955395042638  0.8744960299630115  1.0000
  H   H42       1.0  0.07232412577037337  0.004804460992743726  0.12550397016297737  1.0000
  H   H43       1.0  0.9031271751381604  0.878934239326842  0.9434875792989087  1.0000
  H   H44       1.0  0.09687282465389851  0.12106576071490396  0.056512420202024585  1.0000
  H   H45       1.0  0.9031418865322532  0.8202875799758944  0.8132089684096561  1.0000
  H   H46       1.0  0.09685811321252141  0.17971242052111297  0.18679103171633266  1.0000
  H   H47       1.0  0.9530969357258379  0.9363898361652521  0.7526496992569347  1.0000
  H   H48       1.0  0.04690306406622099  0.06361016387649387  0.24735030024399862  1.0000
  H   H49       1.0  0.1782143371159431  0.8320889488432817  0.5487048732306203  1.0000
  H   H50       1.0  0.8217856626359061  0.1679110518763026  0.45129512627110213  1.0000
  H   H51       1.0  0.17484444388861062  0.9106965556233011  0.44948979198481653  1.0000
  H   H52       1.0  0.8251555558963737  0.08930344419586798  0.550510208140383  1.0000
  H   H53       1.0  0.13684837483990825  0.79468163309578  0.46551508118904034  1.0000
  H   H54       1.0  0.863151624945076  0.20531836672338902  0.5344849189361592  1.0000
  H   H55       1.0  0.5943415513854596  0.869608791316252  0.31846015422612106  1.0000
  H   H56       1.0  0.40565844839952475  0.1303912085029173  0.6815398458990783  1.0000
  H   H57       1.0  0.47664399311082484  0.7133331255703476  0.33090137189659413  1.0000
  H   H58       1.0  0.5233560066741594  0.2866668742488216  0.6690986282286052  1.0000
  H   H59       1.0  0.48210746309889774  0.6529858972826483  0.5997360536693566  1.0000
  H   H60       1.0  0.5178925366860866  0.34701410253652093  0.40026394645584307  1.0000
  H   H61       1.0  0.5878696789671216  0.814935459976399  0.5757551492724576  1.0000
  H   H62       1.0  0.4121303207776531  0.1850645405206084  0.4242448508535312  1.0000
  H   H63       1.0  0.33427096002571827  0.5725874418951153  0.42928912243626366  1.0000
  H   H64       1.0  0.6657290397592661  0.4274125579240538  0.5707108776889358  1.0000
  H   H65       1.0  0.45569498236462985  0.5114732494909701  0.6090947507788056  1.0000
  H   H66       1.0  0.5443050174203544  0.4885267503281989  0.390905249346394  1.0000
  H   H67       1.0  0.30319095666388934  0.39946271410298323  0.7096416418749141  1.0000
  H   H68       1.0  0.6968090431210949  0.6005372857161859  0.2903583582502855  1.0000
  H   H69       1.0  0.07690380326146512  0.29155904855653575  0.746836406484279  1.0000
  H   H70       1.0  0.9230961965235193  0.7084409512626335  0.2531635936409206  1.0000
  H   H71       1.0  0.19788861367506233  0.4586130750336166  0.4486282283432165  1.0000
  H   H72       1.0  0.8021113861099219  0.5413869247855526  0.5513717717819829  1.0000
  H   H73       1.0  0.7542308298149447  0.15210502060377107  0.7140464840874263  1.0000
  H   H74       1.0  0.24576916997003959  0.8478949792153981  0.28595351603777325  1.0000
  H   H75       1.0  0.7978480350303326  0.24962031654181985  0.7517411183268685  1.0000
  H   H76       1.0  0.2021519647546517  0.7503796832773494  0.24825888179833094  1.0000
  H   H77       1.0  0.9514976969948244  0.1611178482745994  0.749827294899719  1.0000
  H   H78       1.0  0.048502302797234505  0.8388821517671464  0.2501727046012143  1.0000
  H   H79       1.0  0.8881347540866651  0.3638268873648935  0.3580823251638509  1.0000
  H   H80       1.0  0.11186524569831918  0.6361731124542758  0.6419176749613485  1.0000
  H   H81       1.0  0.09897614616408146  0.3617251243829598  0.37750267294497364  1.0000
  H   H82       1.0  0.9010238536209028  0.6382748754362093  0.6224973271802258  1.0000
  H   H83       1.0  0.9790718955489143  0.4663813055896549  0.37162417700798295  1.0000
  H   H84       1.0  0.020928105388284914  0.5336186949042502  0.6283758231179055  1.0000
  H   H85       1.0  0.6589662465616772  0.9581544930887622  0.48850630465693484  1.0000
  H   H86       1.0  0.34103375318309737  0.041845507408245323  0.5114936954690539  1.0000
  H   H87       1.0  0.6301113592728431  0.9874844120478741  0.37924816717620713  1.0000
  H   H88       1.0  0.3698886405121412  0.012515587771295099  0.6207518329489923  1.0000
  H   H89       1.0  0.9105979788100224  0.9919341436297184  0.3939155004576157  1.0000
  H   H90       1.0  0.08940202093475233  0.00806585686728904  0.6060844996683731  1.0000
  H   H91       1.0  0.8830318786488998  0.8826422297221447  0.37479852976681344  1.0000
  H   H92       1.0  0.11696812113608454  0.11735777009702457  0.625201470358386  1.0000
  H   H93       1.0  0.9340520639049616  0.9082601319379415  0.5475938893187149  1.0000
  H   H94       1.0  0.06594793588709712  0.09173986810380441  0.4524061101822182  1.0000
  H   H95       1.0  0.896039573247239  0.7980709609837926  0.5328509438756516  1.0000
  H   H96       1.0  0.10396042773016988  0.20192903883227417  0.4671490562494476  1.0000
  C   C1        1.0  0.5944318967595255  0.8088879850353258  0.9796517922832827  1.0000
  C   C2        1.0  0.40556810298524915  0.19111201546168163  0.020348207842706093  1.0000
  C   C3        1.0  0.5273540785513193  0.7214281782705853  0.01220299920447534  1.0000
  C   C4        1.0  0.4726459212336649  0.27857182154858384  0.9877970009207241  1.0000
  C   C5        1.0  0.4871144535771137  0.6682216968367634  0.9593930707535957  1.0000
  C   C6        1.0  0.5128855462078707  0.33177830298240574  0.0406069293716038  1.0000
  C   C7        1.0  0.5056627205687146  0.711940821173374  0.8732254022857945  1.0000
  C   C8        1.0  0.49433727917606  0.2880591793236334  0.12677459784019424  1.0000
  C   C9        1.0  0.5697554440600888  0.8016767362091979  0.8428302068687694  1.0000
  C   C10       1.0  0.4302445569173201  0.1983232636068687  0.1571697932563298  1.0000
  C   C11       1.0  0.4408512744616739  0.5678992994656522  1.8345596681315466e-05  1.0000
  C   C12       1.0  0.5591487253233103  0.43210070035351705  0.9999816545285181  1.0000
  C   C13       1.0  0.41729112490846815  0.4997910661173453  0.9482232573830602  1.0000
  C   C14       1.0  0.5827088748363065  0.5002089343796621  0.05177674274292861  1.0000
  C   C15       1.0  0.26050498470435185  0.4524446397044574  0.9546956958728241  1.0000
  C   C16       1.0  0.7394950162801316  0.5475553603341863  0.045304303628008843  1.0000
  C   C17       1.0  0.20906406463796037  0.4215187743696237  0.8894274084965242  1.0000
  C   C18       1.0  0.790935935147024  0.5784812254495455  0.11057259162867528  1.0000
  C   C19       1.0  0.07901005650706294  0.36210662215365963  0.9001546340050327  1.0000
  C   C20       1.0  0.9209899444703461  0.6378933776624071  0.09984536612006656  1.0000
  C   C21       1.0  0.999441113955343  0.3325560407858413  0.9763992361253916  1.0000
  C   C22       1.0  0.0005588870220660843  0.6674439590302255  0.023600763999707598  1.0000
  C   C23       1.0  0.045527919332956135  0.36723519634091883  0.04164657474369054  1.0000
  C   C24       1.0  0.9544720816515272  0.6327648036977248  0.9583534247571422  1.0000
  C   C25       1.0  0.1751273142007378  0.42602242609389906  0.030526073900681225  1.0000
  C   C26       1.0  0.8248726855842465  0.57397757372527  0.9694739262245182  1.0000
  C   C27       1.0  0.8374818493306576  0.22524699638594778  0.9332584345017658  1.0000
  C   C28       1.0  0.16251815045432672  0.7747530034332211  0.06674156562343377  1.0000
  C   C29       1.0  0.007223551873642301  0.3660189789890442  0.18324175331733286  1.0000
  C   C30       1.0  0.9927764479113419  0.633981020830125  0.8167582468078666  1.0000
  C   C31       1.0  0.6987582432323034  0.9393045365220826  0.8661957988860524  1.0000
  C   C32       1.0  0.3012417577048957  0.0606954639718225  0.13380420123983605  1.0000
  C   C33       1.0  0.8793162878773688  0.925424819319255  0.8794689544381017  1.0000
  C   C34       1.0  0.12068371191468996  0.07457518072249114  0.1205310450628315  1.0000
  C   C35       1.0  0.9600765834353615  0.8849933271449277  0.8155527293667556  1.0000
  C   C36       1.0  0.03992341634962281  0.11500667267424161  0.18444727075844383  1.0000
  C   C37       1.0  0.5647129923244856  0.818971843172714  0.37854914207016194  1.0000
  C   C38       1.0  0.43528700746049875  0.18102815664645505  0.6214508580550376  1.0000
  C   C39       1.0  0.5009543058074973  0.7320301591321906  0.38702700707112525  1.0000
  C   C40       1.0  0.4990456939774869  0.2679698406869786  0.6129729930540743  1.0000
  C   C41       1.0  0.47491554669643626  0.6669299798514501  0.4669810111007731  1.0000
  C   C42       1.0  0.5250844530554132  0.3330700208681342  0.5330189884009493  1.0000
  C   C43       1.0  0.5032488575361436  0.697908651715043  0.5359194487129709  1.0000
  C   C44       1.0  0.4967511434412653  0.3020913481010238  0.46408055141212823  1.0000
  C   C45       1.0  0.5645644089776832  0.7871079851475136  0.5243894360753886  1.0000
  C   C46       1.0  0.43543559199972576  0.21289201466855334  0.47561056404971064  1.0000
  C   C47       1.0  0.4346320676592139  0.5683071295643537  0.47123735799515215  1.0000
  C   C48       1.0  0.5653679321257705  0.43169287025481534  0.5287626421300474  1.0000
  C   C49       1.0  0.4194183838920714  0.48958150006422313  0.555898601320214  1.0000
  C   C50       1.0  0.5805816158527032  0.5104185004327844  0.44410139880577476  1.0000
  C   C51       1.0  0.2668687839059448  0.43733370409900485  0.5769239978584892  1.0000
  C   C52       1.0  0.7331312158790394  0.5626662957201642  0.42307600226671016  1.0000
  C   C53       1.0  0.2286947860266512  0.39083878281342593  0.6603703116326478  1.0000
  C   C54       1.0  0.7713052137583332  0.6091612170057433  0.33962968849255165  1.0000
  C   C55       1.0  0.10051675544864352  0.32972694959334314  0.6816270763555061  1.0000
  C   C56       1.0  0.8994832442961311  0.6702730509036641  0.31837292377048265  1.0000
  C   C57       1.0  0.006901816260494918  0.3156113408570471  0.6195687595770183  1.0000
  C   C58       1.0  0.9930981835244893  0.684388658962122  0.38043124054818117  1.0000
  C   C59       1.0  0.040860628326111016  0.3650697335690813  0.534928509875346  1.0000
  C   C60       1.0  0.9591393714588734  0.6349302662500881  0.4650714902498534  1.0000
  C   C61       1.0  0.1708268603901105  0.42391680377012225  0.5142604722457584  1.0000
  C   C62       1.0  0.8291731393948737  0.576083196049047  0.4857395278794411  1.0000
  C   C63       1.0  0.8455682316759525  0.20154870372921005  0.7180064657495167  1.0000
  C   C64       1.0  0.15443176806882217  0.7984512967677974  0.2819935343764722  1.0000
  C   C65       1.0  0.9803658962964809  0.3882337024784602  0.39106977434731643  1.0000
  C   C66       1.0  0.019634103488503286  0.6117662973407091  0.608930225777883  1.0000
  C   C67       1.0  0.6834056291494905  0.9342817459160406  0.4337891505774887  1.0000
  C   C68       1.0  0.3165943718279184  0.06571825390002614  0.5662108495476106  1.0000
  C   C69       1.0  0.862680231226047  0.9204450671910452  0.42118310632988404  1.0000
  C   C70       1.0  0.13731976971115226  0.07955493330285986  0.5788168937960043  1.0000
  C   C71       1.0  0.9468169697529473  0.8679818861744469  0.5027843042913005  1.0000
  C   C72       1.0  0.05318303003203703  0.13201811364472235  0.4972156958338989  1.0000
  N   N1        1.0  0.6175252668662892  0.8473786345223321  0.896178298033671  1.0000
  N   N2        1.0  0.3824747341111199  0.1526213652937345  0.1038217020914282  1.0000
  N   N3        1.0  0.13120152956235911  0.8579170259110782  0.8351603043756852  1.0000
  N   N4        1.0  0.8687984702226251  0.14208297390809096  0.16483969574951413  1.0000
  N   N5        1.0  0.5998697631950002  0.8444654875749281  0.4467936046439768  1.0000
  N   N6        1.0  0.40013023658998415  0.15553451224424097  0.5532063954812226  1.0000
  N   N7        1.0  0.12024884605672248  0.8502413608395354  0.49049904756540624  1.0000
  N   N8        1.0  0.8797511537282618  0.14975863897963368  0.5095009525597933  1.0000
  O   O1        1.0  0.5609036725818733  0.8755024868664738  0.16745801929869802  1.0000
  O   O2        1.0  0.4390963272031109  0.12449751295269536  0.8325419808265015  1.0000
  O   O3        1.0  0.7812665461245993  0.9375275435422473  0.22050772899732993  1.0000
  O   O4        1.0  0.218733453660385  0.062472456276921766  0.7794922711278695  1.0000
  O   O5        1.0  0.8197589815304201  0.875402244094536  0.10609366741867515  1.0000
  O   O6        1.0  0.1802410194469888  0.1245977557215306  0.8939063327064241  1.0000
  O   O7        1.0  0.6740342977792837  0.022972793525364247  0.08712307980098237  1.0000
  O   O8        1.0  0.3259657019725655  0.9770272071942198  0.9128769197007401  1.0000
  O   O9        1.0  0.4626799460717266  0.4555408758538932  0.2643539931303859  1.0000
  O   O10       1.0  0.5373200537132578  0.544459123965276  0.7356460069948136  1.0000
  O   O11       1.0  0.25249477439166157  0.5372524153444401  0.17297250498317188  1.0000
  O   O12       1.0  0.7475052253933228  0.4627475844747291  0.8270274951420277  1.0000
  O   O13       1.0  0.4459438225087414  0.6264631254168512  0.21642907818697513  1.0000
  O   O14       1.0  0.5540561772762429  0.3735368744023179  0.7835709219382243  1.0000
  O   O15       1.0  0.25329154223789624  0.5398856148971872  0.31348576840815723  1.0000
  O   O16       1.0  0.746708457547088  0.4601143849219818  0.6865142317170423  1.0000
  O   O17       1.0  0.8761015266083881  0.27007668108785665  0.9948571945369701  1.0000
  O   O18       1.0  0.12389847317659614  0.7299233187313123  0.005142805588229486  1.0000
  O   O19       1.0  0.9573729846870745  0.33769705575278414  0.11350909503765115  1.0000
  O   O20       1.0  0.04262701509790978  0.662302944066385  0.8864909050875484  1.0000
  O   O21       1.0  0.8821485785353202  0.2548136843808569  0.6330578053457049  1.0000
  O   O22       1.0  0.11785142124966404  0.7451863154383124  0.36694219477949463  1.0000
  O   O23       1.0  0.9405212799580944  0.3486126465494684  0.47804879158751956  1.0000
  O   O24       1.0  0.059478719826889945  0.6513873532697008  0.5219512085376798  1.0000
  Cl  Cl1       1.0  0.7079392868590221  0.926829899524477  0.14528445014753782  1.0000
  Cl  Cl2       1.0  0.2920607141183868  0.07317010029158967  0.8547155499775613  1.0000
  Cl  Cl3       1.0  0.3535713805160334  0.5394190207937917  0.2419666759100832  1.0000
  Cl  Cl4       1.0  0.6464286192689509  0.4605809790253776  0.7580333242151163  1.0000
  Br  Br1       1.0  0.7033120952631338  0.9729558307957967  0.6406477108878587  1.0000
  Br  Br2       1.0  0.29668790571427517  0.027044169020269772  0.3593522892372405  1.0000
  Br  Br3       1.0  0.2738356930158228  0.8075419152856292  0.6742001230536191  1.0000
  Br  Br4       1.0  0.7261643067691615  0.19245808453354002  0.3257998770715803  1.0000
