data_image0
_chemical_formula_structural       H16C16N4F8I4
_chemical_formula_sum              "H16 C16 N4 F8 I4"
_cell_length_a       7.7058988493434315
_cell_length_b       6.392716292366601
_cell_length_c       12.938641270844828
_cell_angle_alpha    90.0
_cell_angle_beta     95.31706038576907
_cell_angle_gamma    90.0

_space_group_name_H-M_alt    "P 1"
_space_group_IT_number       1

loop_
  _space_group_symop_operation_xyz
  'x, y, z'

loop_
  _atom_site_type_symbol
  _atom_site_label
  _atom_site_symmetry_multiplicity
  _atom_site_fract_x
  _atom_site_fract_y
  _atom_site_fract_z
  _atom_site_occupancy
  H   H1        1.0  0.9825704711913473  0.9137797788672782  0.3211399787424346  1.0000
  H   H2        1.0  0.482570470930648  0.5862202213595576  0.8211399780979499  1.0000
  H   H3        1.0  0.01742952891129071  0.08622022076251895  0.6788600219367396  1.0000
  H   H4        1.0  0.5174295290532168  0.41377977827023954  0.17886002180500657  1.0000
  H   H5        1.0  0.8865775668360051  0.7207796121817572  0.3949506806811256  1.0000
  H   H6        1.0  0.3865775679919708  0.7792203880450788  0.8949506808140554  1.0000
  H   H7        1.0  0.11342243314785971  0.27922038744803995  0.6050493192218309  1.0000
  H   H8        1.0  0.6134224319918941  0.2207796115847185  0.10504931908890103  1.0000
  H   H9        1.0  0.9065436989122025  0.19139620374847596  0.4487178852038024  1.0000
  H   H10       1.0  0.4065436987702763  0.30860379528428244  0.9487178853355354  1.0000
  H   H11       1.0  0.09345630107166236  0.8086037958813213  0.5512821146991541  1.0000
  H   H12       1.0  0.5934563012135885  0.6913962043455146  0.051282114567421114  1.0000
  H   H13       1.0  0.8075158368141291  0.9998518482092296  0.5223002816296056  1.0000
  H   H14       1.0  0.30751583676280997  0.5001481520176063  0.022300281290018507  1.0000
  H   H15       1.0  0.1924841631697358  0.00014815142056763864  0.4776997182733509  1.0000
  H   H16       1.0  0.6924841632210549  0.49985184917647113  0.9776997186129379  1.0000
  C   C1        1.0  0.713236392002585  0.9236874796165873  0.31518255778875454  1.0000
  C   C2        1.0  0.21323639174188555  0.5763125190459685  0.8151825571442698  1.0000
  C   C3        1.0  0.28676360798127987  0.07631252001321001  0.6848174421142018  1.0000
  C   C4        1.0  0.7867636082419793  0.4236874805838287  0.18481744275868656  1.0000
  C   C5        1.0  0.8801718740821598  0.8877611785739083  0.3738248209984695  1.0000
  C   C6        1.0  0.38017187394023366  0.6122388216529275  0.8738248211302024  1.0000
  C   C7        1.0  0.119828125901705  0.11223882105588882  0.6261751789044869  1.0000
  C   C8        1.0  0.6198281260436311  0.38776117797686965  0.126175178772754  1.0000
  C   C9        1.0  0.911736399150865  0.025412355651381346  0.47109695371938015  1.0000
  C   C10       1.0  0.41173639900893877  0.47458764338137716  0.9710969538511132  1.0000
  C   C11       1.0  0.08826360083299989  0.9745876439784158  0.5289030461835763  1.0000
  C   C12       1.0  0.5882636009749261  0.5254123562484201  0.028903046051843313  1.0000
  C   C13       1.0  0.00877949689269285  0.918092529306856  0.0440280705912903  1.0000
  C   C14       1.0  0.5087794969440119  0.5819074709199799  0.5440280709308773  1.0000
  C   C15       1.0  0.9912205030911719  0.08190747032294118  0.9559719293116662  1.0000
  C   C16       1.0  0.4912205031586262  0.4180925302740976  0.4559719297482968  1.0000
  N   N1        1.0  0.5792258747932815  0.9518031947179468  0.26788918895120556  1.0000
  N   N2        1.0  0.07922587465135543  0.548196805508889  0.7678891890829386  1.0000
  N   N3        1.0  0.4207741251905832  0.04819680647613057  0.7321108109517508  1.0000
  N   N4        1.0  0.9207741253325094  0.4518031941209082  0.2321108108200179  1.0000
  F   F1        1.0  0.8723014380276722  0.9431252012856023  0.10383465318182776  1.0000
  F   F2        1.0  0.3723014378857461  0.5568747989412337  0.6038346533135608  1.0000
  F   F3        1.0  0.12769856195619256  0.05687479834419494  0.8961653467211287  1.0000
  F   F4        1.0  0.6276985620981188  0.4431252006885635  0.3961653465893957  1.0000
  F   F5        1.0  0.9952567992597204  0.7226409070454458  0.0012583852318436256  1.0000
  F   F6        1.0  0.49525679911779436  0.7773590931813902  0.5012583853635766  1.0000
  F   F7        1.0  0.004743200724144363  0.27735909258435143  0.9987416146711128  1.0000
  F   F8        1.0  0.5047432008660705  0.22264090644840706  0.4987416145393798  1.0000
  I   I1        1.0  0.2536427956337386  0.9442706783668774  0.14142098887855792  1.0000
  I   I2        1.0  0.7536427956850577  0.5557293218599585  0.641420989218145  1.0000
  I   I3        1.0  0.7463572043501263  0.055729321262919816  0.8585790110243986  1.0000
  I   I4        1.0  0.2463572042988072  0.4442706777698387  0.35857901068481146  1.0000
