data_image0
_chemical_formula_structural       H8C10N2F8I2
_chemical_formula_sum              "H8 C10 N2 F8 I2"
_cell_length_a       5.241106324316286
_cell_length_b       7.889947002443408
_cell_length_c       9.662966177417744
_cell_angle_alpha    84.21778927606658
_cell_angle_beta     85.94133887165951
_cell_angle_gamma    75.99120775463224

_space_group_name_H-M_alt    "P 1"
_space_group_IT_number       1

loop_
  _space_group_symop_operation_xyz
  'x, y, z'

loop_
  _atom_site_type_symbol
  _atom_site_label
  _atom_site_symmetry_multiplicity
  _atom_site_fract_x
  _atom_site_fract_y
  _atom_site_fract_z
  _atom_site_occupancy
  H   H1        1.0  0.8518746271545372  0.30590149762375374  0.0030913893214356562  1.0000
  H   H2        1.0  0.14812537425150044  0.6940985024917052  0.9969086103588499  1.0000
  H   H3        1.0  0.8591736395662958  0.20199069442207968  0.1733669572856473  1.0000
  H   H4        1.0  0.1408263598385742  0.7980093055695282  0.8266330434345536  1.0000
  H   H5        1.0  0.23902774392352172  0.060441359561192246  0.9302019658231477  1.0000
  H   H6        1.0  0.7609722573854492  0.9395586404404137  0.0697980348985113  1.0000
  H   H7        1.0  0.22675608717717732  0.9540955144534652  0.10013706640326299  1.0000
  H   H8        1.0  0.7732439123247594  0.045904485651995564  0.8998629332755645  1.0000
  C   C1        1.0  0.17670169562208166  0.3104067473404252  0.1119888218469437  1.0000
  C   C2        1.0  0.823298303879855  0.6895932527650355  0.8880111778318838  1.0000
  C   C3        1.0  0.9826508002692457  0.21933183665309175  0.07853856834489116  1.0000
  C   C4        1.0  0.01734919923269116  0.7806681634523689  0.9214614313339364  1.0000
  C   C5        1.0  0.10693169108468009  0.04168783618833442  0.02094035771587671  1.0000
  C   C6        1.0  0.8930683084172566  0.9583121639171261  0.9790596419629508  1.0000
  C   C7        1.0  0.6936018663778639  0.7834345833293779  0.4049036068316325  1.0000
  C   C8        1.0  0.30639813312407277  0.21656541677608293  0.5950963928471951  1.0000
  C   C9        1.0  0.4611207170741218  0.9296505424821428  0.4590017013499581  1.0000
  C   C10       1.0  0.5388792824278149  0.0703494576233179  0.5409982983288694  1.0000
  N   N1        1.0  0.33648638411063614  0.3810009826368551  0.13757876877917613  1.0000
  N   N2        1.0  0.6635136153913006  0.6189990174686055  0.8624212308996515  1.0000
  F   F1        1.0  0.8278917168830211  0.6918849237658824  0.5148279227976473  1.0000
  F   F2        1.0  0.17210828261891575  0.30811507633957824  0.4851720768811803  1.0000
  F   F3        1.0  0.8638111776146854  0.8610220233326892  0.321853536278284  1.0000
  F   F4        1.0  0.13618882179018443  0.13897797665891867  0.6781464644419168  1.0000
  F   F5        1.0  0.327406842984008  0.016106202693488617  0.34601595398400947  1.0000
  F   F6        1.0  0.6725931565179287  0.9838937974119721  0.653984045694818  1.0000
  F   F7        1.0  0.2969792756563758  0.8495084436028388  0.5435665402060021  1.0000
  F   F8        1.0  0.7030207237484942  0.15049155638876882  0.45643346051419875  1.0000
  I   I1        1.0  0.5493988217003067  0.6092541139862545  0.2858590724185318  1.0000
  I   I2        1.0  0.45060117770456326  0.39074588600535326  0.7141409283016691  1.0000
