data_image0
_chemical_formula_structural       H12C16N2F16I2
_chemical_formula_sum              "H12 C16 N2 F16 I2"
_cell_length_a       5.331539716192573
_cell_length_b       7.17668713034172
_cell_length_c       15.984621298060441
_cell_angle_alpha    89.85898354709563
_cell_angle_beta     87.50016267127877
_cell_angle_gamma    73.08773485089614

_space_group_name_H-M_alt    "P 1"
_space_group_IT_number       1

loop_
  _space_group_symop_operation_xyz
  'x, y, z'

loop_
  _atom_site_type_symbol
  _atom_site_label
  _atom_site_symmetry_multiplicity
  _atom_site_fract_x
  _atom_site_fract_y
  _atom_site_fract_z
  _atom_site_occupancy
  H   H1        1.0  0.10976535267375763  0.2748868769349386  0.3293975938340779  1.0000
  H   H2        1.0  0.8902346469074901  0.7251131226927924  0.6706024062549256  1.0000
  H   H3        1.0  0.8938547752702939  0.4410577098470546  0.3999107964321456  1.0000
  H   H4        1.0  0.10614522431095388  0.5589422897806764  0.600089203656858  1.0000
  H   H5        1.0  0.16352641054314007  0.26755404861006904  0.5207193100154859  1.0000
  H   H6        1.0  0.8364735890381075  0.732445951017662  0.47928069007351776  1.0000
  H   H7        1.0  0.3668150509629387  0.09968064033037488  0.4480600065046259  1.0000
  H   H8        1.0  0.6331849486183092  0.9003193592973562  0.5519399935843776  1.0000
  H   H9        1.0  0.9842560495736031  0.9955722952208071  0.4043627528636741  1.0000
  H   H10       1.0  0.015743950007644582  0.004427704406923814  0.5956372472253295  1.0000
  H   H11       1.0  0.7720069940711328  0.17121946237074745  0.47267896313288327  1.0000
  H   H12       1.0  0.22799300551011492  0.8287805372569834  0.5273210369561203  1.0000
  C   C1        1.0  0.7547787166222342  0.019233619093414166  0.2004536463601213  1.0000
  C   C2        1.0  0.24522128295901363  0.9807663805343168  0.7995463537288823  1.0000
  C   C3        1.0  0.548586016743592  0.1516655655019767  0.14262971625621632  1.0000
  C   C4        1.0  0.4514139847110148  0.8483344341321694  0.8573702838307302  1.0000
  C   C5        1.0  0.6600038116825329  0.28547855980529735  0.08184649912597079  1.0000
  C   C6        1.0  0.33999618789871483  0.7145214398224337  0.9181535009630327  1.0000
  C   C7        1.0  0.4436948282505591  0.44230768636945583  0.034570742696708616  1.0000
  C   C8        1.0  0.5563051713306887  0.5576923132582752  0.965429257392295  1.0000
  C   C9        1.0  0.27042988802220713  0.4695172344695232  0.38618880967409186  1.0000
  C   C10       1.0  0.7295701128528986  0.5304827666210796  0.6138111904198648  1.0000
  C   C11       1.0  0.09720071922614232  0.34696950580272695  0.390680789589491  1.0000
  C   C12       1.0  0.9027992803551053  0.653030493825004  0.6093192104995127  1.0000
  C   C13       1.0  0.16553899838037853  0.19439961216955165  0.4603065266217872  1.0000
  C   C14       1.0  0.8344610006213681  0.8056003889146358  0.5396934734742265  1.0000
  C   C15       1.0  0.9732119381833013  0.07313035773340985  0.4644405212399503  1.0000
  C   C16       1.0  0.026788063271305375  0.9268696419007364  0.5355594788469961  1.0000
  N   N1        1.0  0.41219816242416635  0.566302564367565  0.3843648848102603  1.0000
  N   N2        1.0  0.5878018372324391  0.43369743526086496  0.6156351146525528  1.0000
  F   F1        1.0  0.9642247306316281  0.9132026552515088  0.1524596260631397  1.0000
  F   F2        1.0  0.035775268370118705  0.08679734583267854  0.8475403740328741  1.0000
  F   F3        1.0  0.8414427589534464  0.1354651925166562  0.253036613350993  1.0000
  F   F4        1.0  0.15855724250116027  0.8645348071174901  0.7469633867359534  1.0000
  F   F5        1.0  0.3504617790908677  0.2672378532187269  0.193151649939895  1.0000
  F   F6        1.0  0.6495382199108789  0.7327621478654605  0.8068483501561188  1.0000
  F   F7        1.0  0.4488409976760067  0.034771183847445805  0.09536954350840356  1.0000
  F   F8        1.0  0.551159001905241  0.9652288157802852  0.9046304565806  1.0000
  F   F9        1.0  0.8287786697228454  0.1676789856821717  0.024667466104427778  1.0000
  F   F10       1.0  0.17122133173176138  0.8323210139519743  0.9753325339825186  1.0000
  F   F11       1.0  0.7952088791475608  0.38197369501622086  0.12733390814657344  1.0000
  F   F12       1.0  0.2047911204336868  0.6180263046115101  0.8726660919424303  1.0000
  F   F13       1.0  0.2983242146963696  0.5716241620888423  0.09286080966649794  1.0000
  F   F14       1.0  0.7016757867582372  0.428375837545304  0.9071391904204485  1.0000
  F   F15       1.0  0.285676701007862  0.3510803827699769  0.9970662728075562  1.0000
  F   F16       1.0  0.7143233005221025  0.6489196168648683  0.002933726653199859  1.0000
  I   I1        1.0  0.5935354429867545  0.8258140046473086  0.27623869570488335  1.0000
  I   I2        1.0  0.4064645565944932  0.17418599498042237  0.7237613043841202  1.0000
