data_image0
_chemical_formula_structural       H12C14N2F12I2
_chemical_formula_sum              "H12 C14 N2 F12 I2"
_cell_length_a       5.233330970620947
_cell_length_b       9.696239576902084
_cell_length_c       10.36318030837423
_cell_angle_alpha    79.4190328913767
_cell_angle_beta     77.77119295068657
_cell_angle_gamma    84.96459971168855

_space_group_name_H-M_alt    "P 1"
_space_group_IT_number       1

loop_
  _space_group_symop_operation_xyz
  'x, y, z'

loop_
  _atom_site_type_symbol
  _atom_site_label
  _atom_site_symmetry_multiplicity
  _atom_site_fract_x
  _atom_site_fract_y
  _atom_site_fract_z
  _atom_site_occupancy
  H   H1        1.0  0.8749020453144734  0.1826930597459793  0.26751927069829023  1.0000
  H   H2        1.0  0.12509795361306575  0.8173069399513995  0.7324807297346001  1.0000
  H   H3        1.0  0.8928459513228587  0.005260215912773537  0.3446751507022  1.0000
  H   H4        1.0  0.10715404760468042  0.9947397837846054  0.6553248497306903  1.0000
  H   H5        1.0  0.26238991551000296  0.13386579392582115  0.08510279206939118  1.0000
  H   H6        1.0  0.7376100834175362  0.8661342057715578  0.914897208363499  1.0000
  H   H7        1.0  0.2731415710506629  0.9557568315477936  0.16140735955207533  1.0000
  H   H8        1.0  0.7268584277050588  0.044243169185524456  0.8385926408772957  1.0000
  H   H9        1.0  0.8016602901248998  0.1114659239739417  0.055832657438487664  1.0000
  H   H10       1.0  0.1983397092074694  0.8885340758978978  0.9441673419925736  1.0000
  H   H11       1.0  0.8185069930750127  0.9324910652309186  0.12898827745556804  1.0000
  H   H12       1.0  0.18149300816504946  0.06750893464235225  0.8710117219822948  1.0000
  C   C1        1.0  0.20155888466930874  0.12292419635025953  0.3522191793074353  1.0000
  C   C2        1.0  0.7984411142582304  0.8770758033471194  0.647780821125455  1.0000
  C   C3        1.0  0.010803624886512079  0.09016980628588908  0.28069041022948293  1.0000
  C   C4        1.0  0.9891963759487199  0.9098301934129212  0.7193095902102091  1.0000
  C   C5        1.0  0.14082090749012394  0.04879651958674825  0.1446908825788616  1.0000
  C   C6        1.0  0.8591790914374151  0.9512034801106305  0.8553091178540287  1.0000
  C   C7        1.0  0.9375940080877578  0.01877540117399514  0.06859154664409195  1.0000
  C   C8        1.0  0.06240599083978119  0.9812245985233838  0.9314084537887982  1.0000
  C   C9        1.0  0.738252718292839  0.38342145129667066  0.7108153352311416  1.0000
  C   C10       1.0  0.26174728103953043  0.6165785485751687  0.28918466419991945  1.0000
  C   C11       1.0  0.5185082521362969  0.4186828798853576  0.8299965682337509  1.0000
  C   C12       1.0  0.4814917486989349  0.5813171198134528  0.17000343220594122  1.0000
  C   C13       1.0  0.6128292714477726  0.4804673338530685  0.9414185686781831  1.0000
  C   C14       1.0  0.3871707293874595  0.5195326658457418  0.05858143176150907  1.0000
  N   N1        1.0  0.3603161458106939  0.1487618010019157  0.4065648644748458  1.0000
  N   N2        1.0  0.6396838531168452  0.8512381986954631  0.5934351359580446  1.0000
  F   F1        1.0  0.8511780818804521  0.5042784661592882  0.6435909484369801  1.0000
  F   F2        1.0  0.14882191935960998  0.49572153371398253  0.35640905100088294  1.0000
  F   F3        1.0  0.9274006569957715  0.29678109243196765  0.7620495595885148  1.0000
  F   F4        1.0  0.07259934424429071  0.7032189074413031  0.2379504398493481  1.0000
  F   F5        1.0  0.34068352540296654  0.5124253667487043  0.778455591136382  1.0000
  F   F6        1.0  0.6593164735245725  0.4875746329486746  0.22154440929650834  1.0000
  F   F7        1.0  0.397672937445463  0.29690935855021044  0.8907195210323497  1.0000
  F   F8        1.0  0.602327063389769  0.7030906411485999  0.10928047940734222  1.0000
  F   F9        1.0  0.7435251621844837  0.5987552539944722  0.8814986537429141  1.0000
  F   F10       1.0  0.25647483697606815  0.40124474691330636  0.11850134568462764  1.0000
  F   F11       1.0  0.7819519989786429  0.38317223424627134  0.9964316547934376  1.0000
  F   F12       1.0  0.21804800208960193  0.6168277666629386  0.0035683446409060897  1.0000
  I   I1        1.0  0.582964215400349  0.2798423028828423  0.5771909375932125  1.0000
  I   I2        1.0  0.41703578352719  0.7201576968145366  0.42280906283967784  1.0000
