data_image0
_chemical_formula_structural       H8C12N2F12I2
_chemical_formula_sum              "H8 C12 N2 F12 I2"
_cell_length_a       5.279206239788255
_cell_length_b       7.054361492829101
_cell_length_c       13.438515723967537
_cell_angle_alpha    75.41819203411343
_cell_angle_beta     85.20351674260218
_cell_angle_gamma    71.7244343576562

_space_group_name_H-M_alt    "P 1"
_space_group_IT_number       1

loop_
  _space_group_symop_operation_xyz
  'x, y, z'

loop_
  _atom_site_type_symbol
  _atom_site_label
  _atom_site_symmetry_multiplicity
  _atom_site_fract_x
  _atom_site_fract_y
  _atom_site_fract_z
  _atom_site_occupancy
  H   H1        1.0  0.5888464919522126  0.7011849994003049  0.4361009523452033  1.0000
  H   H2        1.0  0.4111535079798546  0.29881500022144186  0.5638990482873482  1.0000
  H   H3        1.0  0.6204417977657051  0.9153384529411203  0.3398968986856172  1.0000
  H   H4        1.0  0.37955820216439373  0.08466154704443211  0.6601031011780475  1.0000
  H   H5        1.0  0.7225206092146851  0.8413118676268779  0.5711398963513813  1.0000
  H   H6        1.0  0.2774793907154139  0.15868813235867443  0.4288601035122832  1.0000
  H   H7        1.0  0.7613064680457874  0.05527055448408173  0.4755194260493245  1.0000
  H   H8        1.0  0.23869353188431153  0.9447294455014706  0.5244805738143401  1.0000
  C   C1        1.0  0.9532538135402541  0.2627313830329257  0.17934390020876348  1.0000
  C   C2        1.0  0.0467461863898448  0.7372686169526267  0.820656099654901  1.0000
  C   C3        1.0  0.8430204012818003  0.16883157893079945  0.10499395882505778  1.0000
  C   C4        1.0  0.15697960054430182  0.8311684210530953  0.8950060410332605  1.0000
  C   C5        1.0  0.05909512695710038  0.039050034577826964  0.040289696347985106  1.0000
  C   C6        1.0  0.9409048729729986  0.9609499654077253  0.9597103035156794  1.0000
  C   C7        1.0  0.9764149488831906  0.7083446922577014  0.40247209280834545  1.0000
  C   C8        1.0  0.02358505104690831  0.2916553077278509  0.5975279070553191  1.0000
  C   C9        1.0  0.6971963698666156  0.8161318903721013  0.4151884201628297  1.0000
  C   C10       1.0  0.30280363006348326  0.18386810961345101  0.5848115797008349  1.0000
  C   C11       1.0  0.6485871599350304  0.9435163596799158  0.49622903157933695  1.0000
  C   C12       1.0  0.3514128399950685  0.05648364030563662  0.5037709682843275  1.0000
  N   N1        1.0  0.20169860289027763  0.6222243835472979  0.39347946914434545  1.0000
  N   N2        1.0  0.7983013970417894  0.3777756160744488  0.606520531488206  1.0000
  F   F1        1.0  0.08211017943587456  0.39460458728064685  0.12361357135084396  1.0000
  F   F2        1.0  0.9178898204942244  0.6053954127049054  0.8763864285128207  1.0000
  F   F3        1.0  0.1344264878941353  0.10819702918227272  0.2446992974003164  1.0000
  F   F4        1.0  0.8655735120379318  0.8918029704394742  0.755300703232235  1.0000
  F   F5        1.0  0.6701250580995844  0.32647643240079155  0.039640778592447946  1.0000
  F   F6        1.0  0.3298749418324825  0.6735235672209555  0.9603592220401033  1.0000
  F   F7        1.0  0.7063808068330524  0.04245545897382566  0.16282316915918724  1.0000
  F   F8        1.0  0.2936191930990147  0.9575445406479213  0.8371768314733641  1.0000
  F   F9        1.0  0.212120556982162  0.15674714412127452  0.9885080735283555  1.0000
  F   F10       1.0  0.7878794429479369  0.8432528558642777  0.011491926335309105  1.0000
  F   F11       1.0  0.21609759818311172  0.8725780052511303  0.1074947447920704  1.0000
  F   F12       1.0  0.7839024017489553  0.12742199437061655  0.892505255840481  1.0000
  I   I1        1.0  0.6332103727769566  0.4229177461687511  0.26912527373634704  1.0000
  I   I2        1.0  0.36678962653291713  0.577082255310297  0.730874726125974  1.0000
