data_image0
_chemical_formula_structural       H32C16N24F12S12Cl4
_chemical_formula_sum              "H32 C16 N24 F12 S12 Cl4"
_cell_length_a       12.554329030925187
_cell_length_b       10.460319178601083
_cell_length_c       9.312065746987
_cell_angle_alpha    90.0
_cell_angle_beta     99.64934704688127
_cell_angle_gamma    90.0

_space_group_name_H-M_alt    "P 1"
_space_group_IT_number       1

loop_
  _space_group_symop_operation_xyz
  'x, y, z'

loop_
  _atom_site_type_symbol
  _atom_site_label
  _atom_site_symmetry_multiplicity
  _atom_site_fract_x
  _atom_site_fract_y
  _atom_site_fract_z
  _atom_site_occupancy
  H   H1        1.0  0.9600063930801686  0.42734149538616806  0.3520889578060019  1.0000
  H   H2        1.0  0.0399936063818051  0.9273414944970422  0.14791104274832403  1.0000
  H   H3        1.0  0.03999360664638587  0.5726585047475676  0.647911042699248  1.0000
  H   H4        1.0  0.9600063933447492  0.07265850468069975  0.852088957756926  1.0000
  H   H5        1.0  0.999779923122426  0.5815403465359197  0.3563652662787311  1.0000
  H   H6        1.0  0.00022007620456147663  0.08154034742504562  0.14363473318630832  1.0000
  H   H7        1.0  0.0002200764691422354  0.4184596526418222  0.6436347331372323  1.0000
  H   H8        1.0  0.9997799233870069  0.91845965270869  0.856365266229655  1.0000
  H   H9        1.0  0.1116407185198304  0.542843955623866  0.17556777152594413  1.0000
  H   H10       1.0  0.8883592808071572  0.04284395555699814  0.32443222793909526  1.0000
  H   H11       1.0  0.888359281071738  0.4571560445098697  0.8244322278900192  1.0000
  H   H12       1.0  0.11164071878441119  0.9571560445767375  0.6755677714768682  1.0000
  H   H13       1.0  0.06701411150852478  0.37941338234869887  0.16699392992359915  1.0000
  H   H14       1.0  0.9329858886150763  0.8794133824155667  0.3330060695420473  1.0000
  H   H15       1.0  0.932985888879657  0.620586616829043  0.8330060694929714  1.0000
  H   H16       1.0  0.0670141111114783  0.12058661771816898  0.6669939309632026  1.0000
  H   H17       1.0  0.14492139428773926  0.44104109073820635  0.33158119413302456  1.0000
  H   H18       1.0  0.8550786058358617  0.9410410908050743  0.16841880533262188  1.0000
  H   H19       1.0  0.8550786053038292  0.5589589093955293  0.6684188052829387  1.0000
  H   H20       1.0  0.14492139455232006  0.05895890932866149  0.8315811940839486  1.0000
  H   H21       1.0  0.8794708359939796  0.44790485261527  0.09502070152385064  1.0000
  H   H22       1.0  0.12052916426460744  0.9479048526821379  0.4049792990310825  1.0000
  H   H23       1.0  0.1205291645291882  0.5520951475184657  0.9049792989820065  1.0000
  H   H24       1.0  0.8794708354619469  0.05209514745159782  0.5950207014741675  1.0000
  H   H25       1.0  0.9170587332255253  0.6140708472013409  0.10625153812589856  1.0000
  H   H26       1.0  0.08294126689807564  0.11407084809046675  0.39374846133974795  1.0000
  H   H27       1.0  0.08294126716265642  0.3859291519764011  0.893748461290672  1.0000
  H   H28       1.0  0.9170587326934927  0.8859291520432688  0.6062515380762155  1.0000
  H   H29       1.0  0.8203265568314558  0.553740288522882  0.21175293667366873  1.0000
  H   H30       1.0  0.1796734432921452  0.053740288456014224  0.28824706279197776  1.0000
  H   H31       1.0  0.1796734427601126  0.4462597116108536  0.7882470627422946  1.0000
  H   H32       1.0  0.8203265572310227  0.9462597107217277  0.7117529377138793  1.0000
  C   C1        1.0  0.4312591352294984  0.24986300755973087  0.21147558696284263  1.0000
  C   C2        1.0  0.5687408648941026  0.7498630076265987  0.2885244125028038  1.0000
  C   C3        1.0  0.5687408651586833  0.7501369925740048  0.7885244124537278  1.0000
  C   C4        1.0  0.43125913469746585  0.25013699250713695  0.7114755869131595  1.0000
  C   C5        1.0  0.323948864255332  0.24826607445331358  0.10326426243613084  1.0000
  C   C6        1.0  0.676051135868269  0.7482660745201815  0.39673573702951564  1.0000
  C   C7        1.0  0.6760511353362364  0.7517339256804222  0.8967357369798327  1.0000
  C   C8        1.0  0.3239488645199127  0.2517339256135543  0.6032642623870548  1.0000
  C   C9        1.0  0.08397854246473614  0.46366277234846537  0.23667876869056848  1.0000
  C   C10       1.0  0.9160214576588649  0.9636627724153332  0.2633212307750781  1.0000
  C   C11       1.0  0.9160214571268323  0.5363372277852703  0.7633212307253949  1.0000
  C   C12       1.0  0.08397854272931692  0.036337227718402455  0.7366787686414925  1.0000
  C   C13       1.0  0.8929840579806699  0.5318299647472121  0.1662894455818247  1.0000
  C   C14       1.0  0.1070159421429311  0.03182996468034425  0.33371055388382176  1.0000
  C   C15       1.0  0.10701594174588465  0.4681700353865236  0.8337105549234254  1.0000
  C   C16       1.0  0.8929840582452506  0.9681700354533914  0.6662894455327487  1.0000
  N   N1        1.0  0.464217730541356  0.3672831129148966  0.24980290837942296  1.0000
  N   N2        1.0  0.5357822689206176  0.8672831129817645  0.25019709217490305  1.0000
  N   N3        1.0  0.5357822691851984  0.6327168862628453  0.7501970921258271  1.0000
  N   N4        1.0  0.4642177308059368  0.13271688619597743  0.7498029083303469  1.0000
  N   N5        1.0  0.6755663322762334  0.38247359585207696  0.28788216880087614  1.0000
  N   N6        1.0  0.3244336679823536  0.8824735959189448  0.21211783175405696  1.0000
  N   N7        1.0  0.3244336682469344  0.6175264042816587  0.712117831704981  1.0000
  N   N8        1.0  0.6755663317442009  0.11752640421479087  0.7878821687511931  1.0000
  N   N9        1.0  0.6804852551418298  0.12334076216711999  0.2952990043808708  1.0000
  N   N10       1.0  0.319514744320144  0.6233407622339878  0.20470099617345516  1.0000
  N   N11       1.0  0.3195147445847248  0.8766592379666156  0.7047009961243792  1.0000
  N   N12       1.0  0.6804852554064105  0.37665923789974787  0.7952990043317949  1.0000
  N   N13       1.0  0.46754752193796145  0.13384761268701956  0.2512974720079188  1.0000
  N   N14       1.0  0.5324524775240123  0.6338476127538873  0.24870252854640718  1.0000
  N   N15       1.0  0.5324524777885931  0.8661523874467162  0.7487025284973312  1.0000
  N   N16       1.0  0.4675475222025422  0.3661523873798483  0.7512974719588429  1.0000
  N   N17       1.0  0.5784019920756168  0.253292931579009  0.48021938507752077  1.0000
  N   N18       1.0  0.4215980080479841  0.7532929316458769  0.019780614388125704  1.0000
  N   N19       1.0  0.4215980075159515  0.7467070685547266  0.5197806143384426  1.0000
  N   N20       1.0  0.5784019923401976  0.2467070684878588  0.9802193850284449  1.0000
  N   N21       1.0  0.9825889530065525  0.5020197816470725  0.2872386227199149  1.0000
  N   N22       1.0  0.017411047117048557  0.0020197815802046595  0.21276137674573162  1.0000
  N   N23       1.0  0.01741104672000209  0.49798021848666324  0.7127613777853351  1.0000
  N   N24       1.0  0.9825889532711332  0.9979802185535311  0.7872386226708389  1.0000
  F   F1        1.0  0.31337095301041523  0.35242429385343216  0.015243234325426784  1.0000
  F   F2        1.0  0.6866290472481719  0.8524242939203  0.48475676622950625  1.0000
  F   F3        1.0  0.6866290467161392  0.6475757062803035  0.9847567661798232  1.0000
  F   F4        1.0  0.313370953274996  0.14757570621343566  0.5152432342763508  1.0000
  F   F5        1.0  0.31399970259548576  0.143291166780673  0.016302611384369305  1.0000
  F   F6        1.0  0.6860002968664879  0.6432911668475408  0.48369738916995675  1.0000
  F   F7        1.0  0.6860002971310687  0.8567088333530627  0.9836973891208806  1.0000
  F   F8        1.0  0.31399970286006657  0.35670883328619485  0.5163026113352934  1.0000
  F   F9        1.0  0.23815256849779948  0.2480437906051537  0.1766575366581122  1.0000
  F   F10       1.0  0.7618474316258015  0.7480437906720215  0.32334246280753426  1.0000
  F   F11       1.0  0.7618474310937688  0.751956209528582  0.8233424627578512  1.0000
  F   F12       1.0  0.23815256889736638  0.25195620946171415  0.6766575376983228  1.0000
  S   S1        1.0  0.5679918703078222  0.3837828121165305  0.3822124618144862  1.0000
  S   S2        1.0  0.43200812981577874  0.8837828121833984  0.11778753765116028  1.0000
  S   S3        1.0  0.4320081292837461  0.6162171880172052  0.6177875376014771  1.0000
  S   S4        1.0  0.5679918707073891  0.11621718795033731  0.8822124628546969  1.0000
  S   S5        1.0  0.732619768390756  0.253683815444997  0.2634591548928521  1.0000
  S   S6        1.0  0.2673802317328449  0.7536838155118649  0.2365408445727943  1.0000
  S   S7        1.0  0.2673802319974257  0.7463161846887386  0.7365408445237184  1.0000
  S   S8        1.0  0.7326197686553367  0.2463161846218708  0.7634591548437761  1.0000
  S   S9        1.0  0.5706060695714916  0.12073166969737664  0.3852638624955548  1.0000
  S   S10       1.0  0.42939393068709536  0.6207316697642444  0.11473613805937834  1.0000
  S   S11       1.0  0.4293939309516761  0.8792683304363591  0.6147361380103024  1.0000
  S   S12       1.0  0.5706060690394591  0.3792683303694912  0.8852638624458716  1.0000
  Cl  Cl1       1.0  0.9357014774198927  0.2808098232804431  0.4917271094914658  1.0000
  Cl  Cl2       1.0  0.06429852283869437  0.7808098233473111  0.008272891063467307  1.0000
  Cl  Cl3       1.0  0.0642985223066618  0.7191901768532925  0.5082728910137843  1.0000
  Cl  Cl4       1.0  0.9357014776844735  0.21919017678642472  0.9917271094423898  1.0000
