data_image0
_chemical_formula_structural       H46C54N6O8
_chemical_formula_sum              "H46 C54 N6 O8"
_cell_length_a       7.568340234757483
_cell_length_b       8.720273431508216
_cell_length_c       16.944631880712517
_cell_angle_alpha    88.55596640035013
_cell_angle_beta     77.58725152331209
_cell_angle_gamma    79.09224322224172

_space_group_name_H-M_alt    "P 1"
_space_group_IT_number       1

loop_
  _space_group_symop_operation_xyz
  'x, y, z'

loop_
  _atom_site_type_symbol
  _atom_site_label
  _atom_site_symmetry_multiplicity
  _atom_site_fract_x
  _atom_site_fract_y
  _atom_site_fract_z
  _atom_site_occupancy
  H   H1        1.0  0.6297821527844878  0.2955978920440042  0.33218540212480513  1.0000
  H   H2        1.0  0.37021784648097134  0.7044021083478463  0.6678145981844467  1.0000
  H   H3        1.0  0.4088048040422143  0.08012579246713758  0.054346609109017244  1.0000
  H   H4        1.0  0.5911951952232449  0.919874207924713  0.9456533912002345  1.0000
  H   H5        1.0  0.453058853757812  0.6531937373064967  0.18813476751070943  1.0000
  H   H6        1.0  0.5469411455076473  0.34680626308535384  0.8118652327985424  1.0000
  H   H7        1.0  0.3778967627579586  0.7993889341763836  0.0704038248734747  1.0000
  H   H8        1.0  0.6221032378604849  0.200611066214912  0.9295961753113295  1.0000
  H   H9        1.0  0.6847387710062957  0.536426748246085  0.25874162836918346  1.0000
  H   H10       1.0  0.3152612298707519  0.4635732509772423  0.7412583718105814  1.0000
  H   H11       1.0  0.45542468033155487  0.5622770762569723  0.3151210710300201  1.0000
  H   H12       1.0  0.5445753202868885  0.43772292413432307  0.6848789291547841  1.0000
  H   H13       1.0  0.5138035971702378  0.20918379886241562  0.16051250388033197  1.0000
  H   H14       1.0  0.48619640346272097  0.7908162015196881  0.8394874957130839  1.0000
  H   H15       1.0  0.6212283485011356  0.8197632269662438  0.3482584442106606  1.0000
  H   H16       1.0  0.37877165077883895  0.18023677341641484  0.6517415555072026  1.0000
  H   H17       1.0  0.3480210638245587  0.4846957979289374  0.916169517633016  1.0000
  H   H18       1.0  0.6519789368084001  0.5153042024531663  0.08383048196039972  1.0000
  H   H19       1.0  0.3849356701900912  0.3785802112865611  0.05342327228432491  1.0000
  H   H20       1.0  0.6150643304428678  0.6214197890955426  0.9465767273090908  1.0000
  H   H21       1.0  0.27868296901817863  0.40102075260523834  0.2029112051476215  1.0000
  H   H22       1.0  0.7213170302617959  0.5989792477774204  0.7970887945702418  1.0000
  H   H23       1.0  0.19275847794932333  0.6890064287701281  0.8360651353795733  1.0000
  H   H24       1.0  0.8072415213306512  0.31099357161253055  0.16393486433829005  1.0000
  H   H25       1.0  0.8705873627091812  0.7845430521428165  0.18727808489456094  1.0000
  H   H26       1.0  0.12941263790926225  0.21545694824847914  0.8127219152902433  1.0000
  H   H27       1.0  0.9312725950832229  0.8919940449810365  0.9044340960930327  1.0000
  H   H28       1.0  0.06872740444084018  0.10800595424284573  0.09556590421117964  1.0000
  H   H29       1.0  0.827872998628784  0.8969927475551481  0.0543742009559358  1.0000
  H   H30       1.0  0.1721270022627789  0.10300725165898726  0.9456257986324407  1.0000
  H   H31       1.0  0.2618440110692295  0.2285282843534625  0.458040651301158  1.0000
  H   H32       1.0  0.7381559881962295  0.771471716038388  0.5419593490080937  1.0000
  H   H33       1.0  0.03166642837935415  0.7338994218411253  0.32890055965545606  1.0000
  H   H34       1.0  0.9683335708861049  0.2661005785507253  0.6710994406537957  1.0000
  H   H35       1.0  0.01388114375773365  0.27254866137058187  0.25021613675182375  1.0000
  H   H36       1.0  0.9861188557663296  0.7274513378533004  0.7497838635523887  1.0000
  H   H37       1.0  0.14469765328683346  0.39041290897629694  0.34974209004700146  1.0000
  H   H38       1.0  0.855302345993141  0.6095870914063617  0.6502579096708617  1.0000
  H   H39       1.0  0.9924841630115148  0.9917334802972712  0.2557039084772253  1.0000
  H   H40       1.0  0.0075158362684599024  0.008266520085387594  0.744296091240638  1.0000
  H   H41       1.0  0.13968052516699428  0.5846908956055908  0.4446130231062567  1.0000
  H   H42       1.0  0.8603194743715842  0.4153091036090996  0.5553869766065672  1.0000
  H   H43       1.0  0.3128761969899927  0.9627483529960832  0.525045015528558  1.0000
  H   H44       1.0  0.6871238036284507  0.03725164739521257  0.4749549846562463  1.0000
  H   H45       1.0  0.27624338821247646  0.7026320390894697  0.5323632320796459  1.0000
  H   H46       1.0  0.7237566124204824  0.2973679612926341  0.46763676751377004  1.0000
  C   C1        1.0  0.44251377518111706  0.015272159924133846  0.1065370539146558  1.0000
  C   C2        1.0  0.5574862240843421  0.9847278404677167  0.8934629463945959  1.0000
  C   C3        1.0  0.46988573149348023  0.7743384332073768  0.18171811515105105  1.0000
  C   C4        1.0  0.5301142677719789  0.22566156718447378  0.8182818851582007  1.0000
  C   C5        1.0  0.42645213027534973  0.857724654521507  0.11557019352425991  1.0000
  C   C6        1.0  0.5735478689901093  0.14227534587034354  0.8844298067849917  1.0000
  C   C7        1.0  0.5976760165874806  0.0905388648633821  0.2971371023785716  1.0000
  C   C8        1.0  0.4023239843040824  0.9094611343507534  0.7028628972098049  1.0000
  C   C9        1.0  0.5894595990105814  0.5968213791828536  0.31233935330840984  1.0000
  C   C10       1.0  0.4105404016223775  0.4031786211992501  0.687660646285006  1.0000
  C   C11       1.0  0.5005062542676083  0.08715301740176744  0.16596493733428658  1.0000
  C   C12       1.0  0.49949374499785076  0.9128469829900832  0.8340350629749652  1.0000
  C   C13       1.0  0.6606131652691914  0.5335375304908819  0.38702491537533495  1.0000
  C   C14       1.0  0.339386835607856  0.46646246873244546  0.6129750848044301  1.0000
  C   C15       1.0  0.5440900470001336  0.007194945630089069  0.2342823837518261  1.0000
  C   C16       1.0  0.4559099536183099  0.9928050547612065  0.7657176164329781  1.0000
  C   C17       1.0  0.5308057747821564  0.8455528581489771  0.24277201253443553  1.0000
  C   C18       1.0  0.4691942247564222  0.15444714106571333  0.7572279871783885  1.0000
  C   C19       1.0  0.23610282185939885  0.5760695946775165  0.9458646704972504  1.0000
  C   C20       1.0  0.7638971787590447  0.4239304057137791  0.05413532968755383  1.0000
  C   C21       1.0  0.27053190251975623  0.4700662098307298  0.0810035748206598  1.0000
  C   C22       1.0  0.7294680967457029  0.5299337905611207  0.9189964254885918  1.0000
  C   C23       1.0  0.21105661765480524  0.48243929965483073  0.16371155997215875  1.0000
  C   C24       1.0  0.7889433818837732  0.5175606995598597  0.8362884397406651  1.0000
  C   C25       1.0  0.1474647036585944  0.688424265156175  0.9016652620856238  1.0000
  C   C26       1.0  0.8525352969743644  0.3115757352259286  0.09833473750779205  1.0000
  C   C27       1.0  0.9845345275365893  0.6955324042141835  0.156217677122718  1.0000
  C   C28       1.0  0.015465473340458155  0.3044675950091438  0.843782323057047  1.0000
  C   C29       1.0  0.033596762145506394  0.6960875108611093  0.0705607247405739  1.0000
  C   C30       1.0  0.9664032371199528  0.3039124895307412  0.9294392755686779  1.0000
  C   C31       1.0  0.9999578697633621  0.8050321374132406  0.9407015454418413  1.0000
  C   C32       1.0  4.213085508144635e-05  0.1949678629780549  0.0592984547429631  1.0000
  C   C33       1.0  0.18257136148521286  0.5780592830985014  0.03126459946062064  1.0000
  C   C34       1.0  0.817428639147746  0.42194071728360233  0.968735400132795  1.0000
  C   C35       1.0  0.942422029791966  0.8084218763363848  0.023729722492764123  1.0000
  C   C36       1.0  0.0575779697466124  0.19157812287830558  0.9762702772200597  1.0000
  C   C37       1.0  0.20285641026851414  0.17767578173359477  0.413888652386608  1.0000
  C   C38       1.0  0.7971435892555491  0.8223242174902875  0.5861113479176043  1.0000
  C   C39       1.0  0.09225207783413361  0.7898105091988393  0.37057675128706663  1.0000
  C   C40       1.0  0.907747921704445  0.21018949001585113  0.6294232484257574  1.0000
  C   C41       1.0  0.06327447906604321  0.19895769773016503  0.29683665497600215  1.0000
  C   C42       1.0  0.9367255215524004  0.8010423026611304  0.7031633452088022  1.0000
  C   C43       1.0  0.13852684414658406  0.266611291379456  0.3539874680159908  1.0000
  C   C44       1.0  0.8614731564863748  0.7333887090026477  0.646012531577425  1.0000
  C   C45       1.0  0.05058166785371463  0.04327561229447744  0.29979398864359647  1.0000
  C   C46       1.0  0.9494183327792444  0.9567243880876263  0.7002060109498193  1.0000
  C   C47       1.0  0.15202971684039523  0.7057386270885796  0.43228382859110603  1.0000
  C   C48       1.0  0.8479702826981833  0.29426137212611075  0.5677161711217179  1.0000
  C   C49       1.0  0.2513095189698155  0.9213913301643588  0.4789758671242529  1.0000
  C   C50       1.0  0.7486904802956437  0.07860867022749181  0.5210241331849988  1.0000
  C   C51       1.0  0.18963643748312628  0.017257531170662203  0.4185508796816426  1.0000
  C   C52       1.0  0.8103635634084365  0.9827424680434733  0.581449119906734  1.0000
  C   C53       1.0  0.1105211841106279  0.9487283100611956  0.36155053296050255  1.0000
  C   C54       1.0  0.8894788165078157  0.051271690330099866  0.6384494672243016  1.0000
  N   N1        1.0  0.5757885747384034  0.7626548338838725  0.306619083308302  1.0000
  N   N2        1.0  0.42421142588003996  0.23734516650742318  0.6933809168765023  1.0000
  N   N3        1.0  0.06794933467055804  0.5935954929920929  0.20193878046438088  1.0000
  N   N4        1.0  0.9320506646094164  0.4064045073905657  0.7980612192534824  1.0000
  N   N5        1.0  0.23182556270734767  0.7729425184228854  0.48396185198978275  1.0000
  N   N6        1.0  0.7681744379110957  0.2270574819684102  0.5160381481950215  1.0000
  O   O1        1.0  0.7076867155303287  0.6200048512266251  0.43251011066001793  1.0000
  O   O2        1.0  0.2923132837351304  0.3799951491652255  0.5674898896492339  1.0000
  O   O3        1.0  0.6013468037393321  0.24064227680579156  0.2824588136100843  1.0000
  O   O4        1.0  0.3986531971377154  0.7593577224175356  0.7175411865696807  1.0000
  O   O5        1.0  0.6360463517576059  0.026685789630862038  0.3596560655996877  1.0000
  O   O6        1.0  0.36395364886083753  0.9733142107604337  0.6403439345851166  1.0000
  O   O7        1.0  0.6660217380440732  0.38419656304630995  0.3958271409687212  1.0000
  O   O8        1.0  0.3339782628329742  0.6158034361770173  0.6041728592110437  1.0000
