data_image0
_chemical_formula_structural       H84C96N12O4P4
_chemical_formula_sum              "H84 C96 N12 O4 P4"
_cell_length_a       9.82352892903815
_cell_length_b       14.665492684417067
_cell_length_c       14.638041012458004
_cell_angle_alpha    90.0
_cell_angle_beta     93.00418413570468
_cell_angle_gamma    90.0

_space_group_name_H-M_alt    "P 1"
_space_group_IT_number       1

loop_
  _space_group_symop_operation_xyz
  'x, y, z'

loop_
  _atom_site_type_symbol
  _atom_site_label
  _atom_site_symmetry_multiplicity
  _atom_site_fract_x
  _atom_site_fract_y
  _atom_site_fract_z
  _atom_site_occupancy
  H   H1        1.0  0.15582931997738922  0.8494411158267314  0.5490338632794671  1.0000
  H   H2        1.0  0.34417067935649925  0.3494411159773253  0.9509661368289892  1.0000
  H   H3        1.0  0.8441706796239216  0.15055888387208083  0.45096613671942853  1.0000
  H   H4        1.0  0.6558293202448116  0.650558883721487  0.04903386316990653  1.0000
  H   H5        1.0  0.29853754911258545  0.7830818941529809  0.5939580389758461  1.0000
  H   H6        1.0  0.201462450221303  0.28308189430357467  0.90604196113261  1.0000
  H   H7        1.0  0.7014624504887254  0.21691810554583144  0.4060419610230494  1.0000
  H   H8        1.0  0.7985375493800078  0.7169181053952376  0.09395803886628562  1.0000
  H   H9        1.0  0.22903836654837165  0.760197803095024  0.4832977401514424  1.0000
  H   H10       1.0  0.27096163274330026  0.2601978025637451  0.01670225984798671  1.0000
  H   H11       1.0  0.7709616330529392  0.23980219728566105  0.5167022598474533  1.0000
  H   H12       1.0  0.7290383668580106  0.7398021971350671  0.983297740150909  1.0000
  H   H13       1.0  0.47447817082173643  0.8070290050722864  0.40558403806451887  1.0000
  H   H14       1.0  0.02552182948790247  0.3070290052228803  0.0944159619349477  1.0000
  H   H15       1.0  0.5255218297975414  0.19297099462652584  0.5944159619344144  1.0000
  H   H16       1.0  0.9744781701134083  0.692970994475932  0.9055840380639479  1.0000
  H   H17       1.0  0.5252888492045545  0.7973819803834855  0.5224866659733917  1.0000
  H   H18       1.0  0.9747111507063952  0.2973819805340794  0.9775133340249706  1.0000
  H   H19       1.0  0.47471115039675627  0.20261801931532672  0.477513334025504  1.0000
  H   H20       1.0  0.025288849912882674  0.7026180198466057  0.022486665973962615  1.0000
  H   H21       1.0  0.557754175924995  0.9018650831999462  0.46234384528862105  1.0000
  H   H22       1.0  0.9422458249617051  0.40186508335054005  0.03765615460075153  1.0000
  H   H23       1.0  0.44224582469428286  0.09813491649886606  0.5376561547103121  1.0000
  H   H24       1.0  0.05775417565757265  0.5981349163482722  0.9623438453981816  1.0000
  H   H25       1.0  0.31008248483549916  0.33289225292699764  0.6996613546606161  1.0000
  H   H26       1.0  0.18991751551635636  0.8328922534582766  0.8003386454478777  1.0000
  H   H27       1.0  0.6899175157837787  0.6671077467718146  0.3003386453383171  1.0000
  H   H28       1.0  0.8100824840849544  0.16710774692240848  0.1996613545510179  1.0000
  H   H29       1.0  0.5768849368262036  0.6662004714223722  0.6750983307637588  1.0000
  H   H30       1.0  0.9231150630847461  0.16620047157296602  0.8249016692346033  1.0000
  H   H31       1.0  0.4231150637930743  0.3337995282764401  0.3249016692351743  1.0000
  H   H32       1.0  0.0768849365165646  0.8337995281258462  0.17509833076429232  1.0000
  H   H33       1.0  0.18014817758180598  0.5635530062199553  0.5639073078556206  1.0000
  H   H34       1.0  0.31985182277004953  0.0635530056886764  0.9360926922528732  1.0000
  H   H35       1.0  0.8198518220195047  0.4364469941607297  0.436092692143275  1.0000
  H   H36       1.0  0.6801481778492283  0.9364469940101359  0.06390730774606004  1.0000
  H   H37       1.0  0.605552285319956  0.5047655274388243  0.8473812265655232  1.0000
  H   H38       1.0  0.8944477145909937  0.004765527589418179  0.6526187734328391  1.0000
  H   H39       1.0  0.3944477142813548  0.4952344729418607  0.15261877343337246  1.0000
  H   H40       1.0  0.10555228501031709  0.9952344727912669  0.3473812265660566  1.0000
  H   H41       1.0  0.28612538356301037  0.6036212529979432  0.8770310765220937  1.0000
  H   H42       1.0  0.2138746157708781  0.10362125314853711  0.6229689235863625  1.0000
  H   H43       1.0  0.7138746160383005  0.396378746700869  0.12296892347680181  1.0000
  H   H44       1.0  0.7861253838304327  0.8963787465502752  0.3770310764125332  1.0000
  H   H45       1.0  0.6361139482194345  0.21286346508610907  0.8670601183909115  1.0000
  H   H46       1.0  0.8638860516915152  0.7128634649355152  0.6329398816074507  1.0000
  H   H47       1.0  0.36388605138187635  0.7871365346127032  0.13293988160798412  1.0000
  H   H48       1.0  0.13611394790979553  0.2871365347632971  0.3670601183914449  1.0000
  H   H49       1.0  0.9258964191268617  0.5637409903579126  0.5579048426585149  1.0000
  H   H50       1.0  0.574103580784088  0.06374099050850651  0.9420951573398471  1.0000
  H   H51       1.0  0.07410358149241604  0.4362590093408996  0.44209515734041815  1.0000
  H   H52       1.0  0.42589641881722284  0.9362590091903057  0.05790484265904847  1.0000
  H   H53       1.0  0.8027755057341832  0.5214969932872731  0.6954679751513712  1.0000
  H   H54       1.0  0.6972244951947336  0.021496993437866988  0.8045320248470287  1.0000
  H   H55       1.0  0.1972244948850946  0.47850300641153914  0.304532024847562  1.0000
  H   H56       1.0  0.3027755054245443  0.9785030062609453  0.19546797515190462  1.0000
  H   H57       1.0  0.184785645105135  0.4658516673810308  0.8422015589374121  1.0000
  H   H58       1.0  0.3152143552467205  0.9658516672304369  0.6577984411710818  1.0000
  H   H59       1.0  0.8152143555141428  0.5341483329996543  0.1577984410615212  1.0000
  H   H60       1.0  0.6847856443545903  0.034148333150248074  0.34220155882781383  1.0000
  H   H61       1.0  0.4292645750803308  0.19576270854170194  0.7628808516282936  1.0000
  H   H62       1.0  0.0707354252715247  0.6957627083911081  0.7371191484802003  1.0000
  H   H63       1.0  0.5707354255389471  0.8042372918389831  0.23711914837063972  1.0000
  H   H64       1.0  0.9292645743297862  0.304237291989577  0.26288085151869534  1.0000
  H   H65       1.0  0.6466977141880546  0.8065260904986876  0.7633418339171012  1.0000
  H   H66       1.0  0.853302285722895  0.3065260899674087  0.736658166081261  1.0000
  H   H67       1.0  0.35330228541325615  0.19347390988199742  0.23665816608179438  1.0000
  H   H68       1.0  0.14669771387841568  0.6934739097314035  0.26334183391763466  1.0000
  H   H69       1.0  0.9321079906145685  0.4733922364147261  0.8381376519651361  1.0000
  H   H70       1.0  0.5678920092963815  0.9733922362641323  0.6618623480332262  1.0000
  H   H71       1.0  0.06789200898674254  0.5266077632840862  0.16186234803375957  1.0000
  H   H72       1.0  0.4321079913228964  0.026607763434680035  0.33813765196570705  1.0000
  H   H73       1.0  0.3518598837638242  0.7446849352428764  0.9613059893939245  1.0000
  H   H74       1.0  0.14814011557006423  0.24468493539347022  0.5386940107145316  1.0000
  H   H75       1.0  0.6481401158374865  0.2553150644559359  0.038694010604971  1.0000
  H   H76       1.0  0.8518598840312467  0.7553150643053421  0.461305989284364  1.0000
  H   H77       1.0  0.7218395006589109  0.36776292935121263  0.9103245386990567  1.0000
  H   H78       1.0  0.7781604992520388  0.8677629292006188  0.5896754612993055  1.0000
  H   H79       1.0  0.2781604989423998  0.6322370710294724  0.08967546129983893  1.0000
  H   H80       1.0  0.22183950034927205  0.13223707049819344  0.4103245386995901  1.0000
  H   H81       1.0  0.5312710463852893  0.8463574799085155  0.9038577046551237  1.0000
  H   H82       1.0  0.9687289535256605  0.3463574800591095  0.5961422953432386  1.0000
  H   H83       1.0  0.4687289532160214  0.15364252047216942  0.09614229534377196  1.0000
  H   H84       1.0  0.0312710460756504  0.6536425203215755  0.40385770465565707  1.0000
  C   C1        1.0  0.47740241629872643  0.473940647584611  0.5455867416841733  1.0000
  C   C2        1.0  0.02259758405312912  0.97394064811589  0.9544132584243205  1.0000
  C   C3        1.0  0.5225975843205514  0.5260593521142013  0.4544132583147598  1.0000
  C   C4        1.0  0.9774024165661487  0.02605935226479511  0.045586741574612705  1.0000
  C   C5        1.0  0.37014012784527767  0.4092751269364245  0.5112829146906103  1.0000
  C   C6        1.0  0.12985987250657785  0.9092751267858307  0.9887170854178834  1.0000
  C   C7        1.0  0.6298598717560331  0.5907248727623877  0.4887170853082853  1.0000
  C   C8        1.0  0.8701401281126999  0.09072487291298162  0.011282914581049729  1.0000
  C   C9        1.0  0.5969990919371112  0.4169944666433196  0.5753988083331676  1.0000
  C   C10       1.0  0.9030009079738385  0.9169944664927258  0.9246011916651944  1.0000
  C   C11       1.0  0.40300090868216654  0.5830055337373654  0.4246011916657655  1.0000
  C   C12       1.0  0.09699909162747236  0.08300553320608653  0.07539880833370106  1.0000
  C   C13       1.0  0.19821369206609957  0.5152322893337794  0.7034180683703786  1.0000
  C   C14       1.0  0.301786308285756  0.015232288802500563  0.7965819317381151  1.0000
  C   C15       1.0  0.8017863075352113  0.4847677110469056  0.296581931628517  1.0000
  C   C16       1.0  0.6982136923335219  0.9847677108963118  0.20341806826081804  1.0000
  C   C17       1.0  0.125053006456206  0.5423047190532302  0.623063438662739  1.0000
  C   C18       1.0  0.3749469938956495  0.042304719203824066  0.8769365614457548  1.0000
  C   C19       1.0  0.8749469941630718  0.4576952813274548  0.37693656133619413  1.0000
  C   C20       1.0  0.6250530057056614  0.9576952811768609  0.12306343855314092  1.0000
  C   C21       1.0  0.9829876632912377  0.5429705521220622  0.6201934316142789  1.0000
  C   C22       1.0  0.517012336619712  0.04297055227265616  0.8798065683840832  1.0000
  C   C23       1.0  0.017012336310073064  0.45702944757675  0.37980656838461674  1.0000
  C   C24       1.0  0.48298766298159884  0.9570294474261561  0.12019343161481234  1.0000
  C   C25       1.0  0.9137064156793446  0.5192824178414369  0.6976752911392845  1.0000
  C   C26       1.0  0.5862935842316049  0.019282417992030818  0.8023247088590777  1.0000
  C   C27       1.0  0.08629358392196605  0.48071758185737534  0.30232470885961116  1.0000
  C   C28       1.0  0.41370641536970587  0.9807175817067814  0.1976752911398179  1.0000
  C   C29       1.0  0.9862156000757769  0.4916168611001274  0.7776171246250296  1.0000
  C   C30       1.0  0.5137843998351727  0.9916168616314064  0.7223828753733325  1.0000
  C   C31       1.0  0.013784399525533717  0.5083831385986848  0.22238287537386592  1.0000
  C   C32       1.0  0.4862155997661381  0.0083831387492787  0.27761712462556315  1.0000
  C   C33       1.0  0.1283676634904733  0.4884255076961105  0.7802366739007529  1.0000
  C   C34       1.0  0.3716323368613822  0.9884255075455166  0.719763326207741  1.0000
  C   C35       1.0  0.8716323361108375  0.5115744926845746  0.2197633260981427  1.0000
  C   C36       1.0  0.6283676637578957  0.011574492835168405  0.28023667379119227  1.0000
  C   C37       1.0  0.42712547661954336  0.6269359569330734  0.7701629588352108  1.0000
  C   C38       1.0  0.07287452373231217  0.12693595640179445  0.7298370412732831  1.0000
  C   C39       1.0  0.5728745229817674  0.3730640434476117  0.22983704116368492  1.0000
  C   C40       1.0  0.9271254768869658  0.8730640432970178  0.27016295872565016  1.0000
  C   C41       1.0  0.3641087584245615  0.6482030453774598  0.8511748324841141  1.0000
  C   C42       1.0  0.13589124090932697  0.14820304484618085  0.6488251676243422  1.0000
  C   C43       1.0  0.6358912411767492  0.3517969550032253  0.14882516751478156  1.0000
  C   C44       1.0  0.8641087586919838  0.8517969548526313  0.3511748323745535  1.0000
  C   C45       1.0  0.4016720311616424  0.7271683931445014  0.8991099782490359  1.0000
  C   C46       1.0  0.09832796817224607  0.22716839329509536  0.6008900218594202  1.0000
  C   C47       1.0  0.5983279684396684  0.2728316072361835  0.10089002174985963  1.0000
  C   C48       1.0  0.9016720314290646  0.7728316070855897  0.3991099781394754  1.0000
  C   C49       1.0  0.50193658507991  0.7844862199702705  0.8667324707511177  1.0000
  C   C50       1.0  0.9980634148310398  0.2844862201208644  0.6332675292472446  1.0000
  C   C51       1.0  0.4980634145214008  0.21551377972854174  0.133267529247778  1.0000
  C   C52       1.0  0.0019365847702710762  0.7155137795779479  0.3667324707516511  1.0000
  C   C53       1.0  0.5662370907592101  0.762642256941303  0.7867833381068445  1.0000
  C   C54       1.0  0.9337629091517394  0.26264225709189687  0.7132166618915176  1.0000
  C   C55       1.0  0.43376290884210056  0.23735774275750926  0.21321666189205107  1.0000
  C   C56       1.0  0.06623709146753835  0.7373577426069153  0.2867833381074155  1.0000
  C   C57       1.0  0.5288469522947302  0.684087161330767  0.7380267383502727  1.0000
  C   C58       1.0  0.9711530476162195  0.1840871614813608  0.7619732616480894  1.0000
  C   C59       1.0  0.4711530483245475  0.31591283904991807  0.2619732616486604  1.0000
  C   C60       1.0  0.02884695198509132  0.8159128388993243  0.23802673835080615  1.0000
  C   C61       1.0  0.451441918111929  0.4278020333177358  0.7682069048135438  1.0000
  C   C62       1.0  0.0485580812219594  0.9278020331671418  0.7317930952949123  1.0000
  C   C63       1.0  0.5485580814893817  0.5721979670629492  0.23179309518535174  1.0000
  C   C64       1.0  0.9514419183793514  0.07219796653167036  0.2682069047039833  1.0000
  C   C65       1.0  0.4012669647161201  0.3405736307316246  0.7449759721318994  1.0000
  C   C66       1.0  0.09873303563573542  0.8405736305810306  0.7550240279765943  1.0000
  C   C67       1.0  0.5987330348851907  0.6594263696490604  0.25502402786699624  1.0000
  C   C68       1.0  0.9012669649835425  0.15942636911778152  0.24497597202233878  1.0000
  C   C69       1.0  0.46817723562971536  0.2634993827453266  0.7803905403121071  1.0000
  C   C70       1.0  0.031822764722140066  0.7634993825947328  0.7196094597963866  1.0000
  C   C71       1.0  0.5318227639715953  0.7365006169534856  0.21960945968678838  1.0000
  C   C72       1.0  0.9681772358971378  0.23650061710407952  0.2803905402025466  1.0000
  C   C73       1.0  0.5842242456942925  0.2730468928776509  0.8390305376943454  1.0000
  C   C74       1.0  0.9157757552346243  0.7730468934089298  0.6609694623040543  1.0000
  C   C75       1.0  0.41577575492498536  0.7269531068211613  0.16096946230458778  1.0000
  C   C76       1.0  0.0842242453846536  0.22695310697175522  0.3390305376948788  1.0000
  C   C77       1.0  0.6327816477847739  0.3597256610141425  0.8633471568401226  1.0000
  C   C78       1.0  0.8672183521261758  0.8597256608635486  0.6366528431582397  1.0000
  C   C79       1.0  0.36721835283450405  0.6402743393665425  0.13665284315881054  1.0000
  C   C80       1.0  0.1327816474751349  0.14027433883526366  0.36334715684065605  1.0000
  C   C81       1.0  0.5671011539658929  0.43734897613192225  0.8279659813316654  1.0000
  C   C82       1.0  0.9328988459450568  0.9373489759813284  0.6720340186666969  1.0000
  C   C83       1.0  0.43289884665338496  0.56265102356689  0.1720340186672678  1.0000
  C   C84       1.0  0.06710115365625392  0.06265102371748388  0.3279659813321988  1.0000
  C   C85       1.0  0.3480471284428306  0.8820287635985524  0.4926766642355823  1.0000
  C   C86       1.0  0.15195287186680834  0.38202876374914624  0.007323335763884268  1.0000
  C   C87       1.0  0.6519528711584802  0.11797123610025989  0.5073233357633133  1.0000
  C   C88       1.0  0.8480471287524695  0.617971235949666  0.992676664235049  1.0000
  C   C89       1.0  0.2508036924071412  0.8156526771657839  0.5326190495878986  1.0000
  C   C90       1.0  0.2491963069267473  0.3156526773163778  0.9673809505205575  1.0000
  C   C91       1.0  0.7491963071941696  0.18434732321490105  0.4673809504109969  1.0000
  C   C92       1.0  0.7508036926745635  0.6843473230643072  0.03261904947833811  1.0000
  C   C93       1.0  0.4859480570068838  0.8456618633193205  0.4701014204183619  1.0000
  C   C94       1.0  0.014051943302755106  0.34566186346991434  0.0298985795811047  1.0000
  C   C95       1.0  0.5140519425944269  0.15433813637949179  0.5298985795805338  1.0000
  C   C96       1.0  0.9859480573165228  0.6543381362288978  0.9701014204178285  1.0000
  N   N1        1.0  0.44020619171269476  0.5401299377017732  0.608613930766066  1.0000
  N   N2        1.0  0.0597938086391608  0.040129937852367015  0.8913860693424278  1.0000
  N   N3        1.0  0.5597938078886161  0.4598700619970391  0.3913860692328297  1.0000
  N   N4        1.0  0.940206191980117  0.9598700618464453  0.10861393065650535  1.0000
  N   N5        1.0  0.28260767779227663  0.36069329710420567  0.48546657114141345  1.0000
  N   N6        1.0  0.21739232251736232  0.8606932969536117  0.01453342885805315  1.0000
  N   N7        1.0  0.7173923218090342  0.6393067025946065  0.5145334288574822  1.0000
  N   N8        1.0  0.7826076781019156  0.13930670274520043  0.9854665711408801  1.0000
  N   N9        1.0  0.6925230667086658  0.37645108887928547  0.6028245028530238  1.0000
  N   N10       1.0  0.8074769332022839  0.8764510887286916  0.8971754971453385  1.0000
  N   N11       1.0  0.307476933910612  0.6235489115013996  0.3971754971459094  1.0000
  N   N12       1.0  0.19252306639902692  0.12354891097012065  0.10282450285355717  1.0000
  O   O1        1.0  0.3161041219614736  0.9623863871274372  0.4781421108516532  1.0000
  O   O2        1.0  0.18389587834816534  0.462386387278031  0.021857889147813406  1.0000
  O   O3        1.0  0.6838958786578043  0.037613612571375146  0.52185788914728  1.0000
  O   O4        1.0  0.8161041212531456  0.537613613102654  0.9781421108510822  1.0000
  P   P1        1.0  0.3818523686636939  0.5252246471190525  0.7069089018433391  1.0000
  P   P2        1.0  0.11814763168816163  0.025224647269646384  0.7930910982651547  1.0000
  P   P3        1.0  0.618147630937617  0.4747753532616325  0.2930910981555565  1.0000
  P   P4        1.0  0.8818523689311163  0.9747753531110386  0.20690890173377846  1.0000
