data_image0
_chemical_formula_structural       H58C64N10O6Cl12
_chemical_formula_sum              "H58 C64 N10 O6 Cl12"
_cell_length_a       11.747725741017534
_cell_length_b       12.065807814632334
_cell_length_c       12.923758429562344
_cell_angle_alpha    79.01342774239176
_cell_angle_beta     65.19820804029814
_cell_angle_gamma    86.42532866289908

_space_group_name_H-M_alt    "P 1"
_space_group_IT_number       1

loop_
  _space_group_symop_operation_xyz
  'x, y, z'

loop_
  _atom_site_type_symbol
  _atom_site_label
  _atom_site_symmetry_multiplicity
  _atom_site_fract_x
  _atom_site_fract_y
  _atom_site_fract_z
  _atom_site_occupancy
  H   H1        1.0  0.5472819024124869  0.8125505494639103  0.7246368850975703  1.0000
  H   H2        1.0  0.4527180978457951  0.1874494501201698  0.2753631153680361  1.0000
  H   H3        1.0  0.45191830269341327  0.6911341249299512  0.8056801997197417  1.0000
  H   H4        1.0  0.548081697096017  0.3088658748109833  0.19431979988436  1.0000
  H   H5        1.0  0.05151327998984005  0.8052686301461457  0.8361149689784837  1.0000
  H   H6        1.0  0.9484867194147791  0.19473136943832578  0.16388503149237904  1.0000
  H   H7        1.0  0.09921952936936364  0.9315148234449127  0.6461331757869431  1.0000
  H   H8        1.0  0.9007804699819452  0.06848517696936342  0.3538668246872688  1.0000
  H   H9        1.0  0.32100588004043473  0.9978988201006119  0.5210063464777006  1.0000
  H   H10       1.0  0.678994120602658  0.0021011796399312607  0.4789936531211448  1.0000
  H   H11       1.0  0.4875350055747656  0.9297060175237775  0.592049776854993  1.0000
  H   H12       1.0  0.512464994630206  0.07029398289010722  0.40795022361396255  1.0000
  H   H13       1.0  0.3176723698346854  0.681700372933909  0.996065382678456  1.0000
  H   H14       1.0  0.6823276299547448  0.3182996268070258  0.003934616925645636  1.0000
  H   H15       1.0  0.3222227417124463  0.7796436008528647  0.0774906988634475  1.0000
  H   H16       1.0  0.677777258076984  0.2203563988880699  0.9225093007406541  1.0000
  H   H17       1.0  0.7525009296694285  0.558603064009736  0.9151037672483961  1.0000
  H   H18       1.0  0.2474990701200015  0.44139693573119865  0.08489623235570556  1.0000
  H   H19       1.0  0.7122836914256003  0.47278784051234074  0.11928641847973395  1.0000
  H   H20       1.0  0.28771630921749247  0.5272121592282025  0.8807135811191114  1.0000
  H   H21       1.0  0.504744159360463  0.5108266732680888  0.27898313078632414  1.0000
  H   H22       1.0  0.495255840044156  0.4891733263163828  0.7210168696845385  1.0000
  H   H23       1.0  0.35250343938424417  0.6339079123362693  0.2254262127041988  1.0000
  H   H24       1.0  0.6474965608207273  0.36609208807761523  0.7745737877647567  1.0000
  H   H25       1.0  0.46176483065903545  0.8831743012508122  0.07628012988654548  1.0000
  H   H26       1.0  0.5382351687455835  0.11682569833365936  0.9237198705843174  1.0000
  H   H27       1.0  0.8251724281344024  0.3360962667915363  0.3919728147590719  1.0000
  H   H28       1.0  0.17482757121690656  0.6639037336227397  0.6080271857151399  1.0000
  H   H29       1.0  0.5596164514503852  0.1653449685876934  0.7216067941756691  1.0000
  H   H30       1.0  0.44038354880789654  0.8346550309963867  0.27839320628993736  1.0000
  H   H31       1.0  0.4292222284115515  0.40234862861233267  0.5048508304949615  1.0000
  H   H32       1.0  0.5707777722315415  0.5976513711282105  0.49514916910388385  1.0000
  H   H33       1.0  0.6517596488263031  0.4423352140691206  0.3575885105259957  1.0000
  H   H34       1.0  0.348240350963127  0.557664785671814  0.642411489078106  1.0000
  H   H35       1.0  0.3898282681770027  0.09473715629988112  0.7549134949516216  1.0000
  H   H36       1.0  0.6101717324127799  0.9052628442704665  0.24508650465057286  1.0000
  H   H37       1.0  0.13064977241528666  0.18187433218291016  0.8451765614064264  1.0000
  H   H38       1.0  0.8693502269360223  0.8181256682313658  0.15482343906778548  1.0000
  H   H39       1.0  0.16799757270671392  0.04096542278718992  0.8243547543104529  1.0000
  H   H40       1.0  0.8320024278830684  0.9590345777831578  0.17564524529174175  1.0000
  H   H41       1.0  0.2418137020837817  0.2440833718377581  0.978524243898507  1.0000
  H   H42       1.0  0.7581862976523382  0.755916628732981  0.021475755708943865  1.0000
  H   H43       1.0  0.21031704672167426  0.19440809667370074  0.1839133811860994  1.0000
  H   H44       1.0  0.7896829539214186  0.8055919030668425  0.8160866184127459  1.0000
  H   H45       1.0  0.09031571295279506  0.8589128884410897  0.201437416235642  1.0000
  H   H46       1.0  0.9096842876369874  0.14108711212925806  0.7985625833665527  1.0000
  H   H47       1.0  0.1221917831157768  0.9087072478519933  0.995765146698306  1.0000
  H   H48       1.0  0.8778082166203429  0.09129275271874589  0.004234852909145106  1.0000
  H   H49       1.0  0.12036812894738667  0.07254601651164214  0.3672962385703254  1.0000
  H   H50       1.0  0.8796318707887332  0.9274539840590971  0.6327037610371254  1.0000
  H   H51       1.0  0.03386326573925838  0.9492977117962795  0.3851952305192192  1.0000
  H   H52       1.0  0.9661367336120504  0.05070228861799626  0.6148047699549927  1.0000
  H   H53       1.0  0.310325825875971  0.946596311766194  0.30489119786395524  1.0000
  H   H54       1.0  0.6896741735286481  0.053403687818277694  0.6951088026069075  1.0000
  H   H55       1.0  0.09666863611954649  0.37958670550602147  0.7660717224205992  1.0000
  H   H56       1.0  0.903331364470236  0.6204132950643262  0.23392827718159542  1.0000
  H   H57       1.0  0.06354869298598441  0.3289497597869791  0.47150549947984927  1.0000
  H   H58       1.0  0.9364513072722973  0.6710502397971012  0.528494500985757  1.0000
  C   C1        1.0  0.45439825913234183  0.7835527898583861  0.7909956700278057  1.0000
  C   C2        1.0  0.54560174112594  0.21644720972569403  0.20900433043780065  1.0000
  C   C3        1.0  0.355541399909451  0.8298536573838761  0.74912877394952  1.0000
  C   C4        1.0  0.6444585994951681  0.17014634220059555  0.2508712265213427  1.0000
  C   C5        1.0  0.14797141816452422  0.8332391399639218  0.7789478401936152  1.0000
  C   C6        1.0  0.8520285824785685  0.16676085977662136  0.22105215940523026  1.0000
  C   C7        1.0  0.17405229563612823  0.9055051376001938  0.6733934948504031  1.0000
  C   C8        1.0  0.8259477037151807  0.09449486281408224  0.32660650562380883  1.0000
  C   C9        1.0  0.29763782219233464  0.941405771192534  0.6039321839017948  1.0000
  C   C10       1.0  0.7023621780126369  0.058594229221350436  0.3960678165671608  1.0000
  C   C11       1.0  0.38972551236888914  0.9033300884900641  0.6426941854455668  1.0000
  C   C12       1.0  0.6102744870357301  0.09666991109440742  0.35730581502529596  1.0000
  C   C13       1.0  0.38212111365650114  0.7353825351229892  0.007405803961296384  1.0000
  C   C14       1.0  0.6178788865484703  0.26461746529089536  0.9925941965076591  1.0000
  C   C15       1.0  0.47439375500733333  0.6616818451256727  0.041891944330517024  1.0000
  C   C16       1.0  0.5256062452509485  0.33831815445840735  0.9581080561350893  1.0000
  C   C17       1.0  0.664471957503405  0.573451359229024  0.9865256878434518  1.0000
  C   C18       1.0  0.3355280422860251  0.42654864051191055  0.01347431176064988  1.0000
  C   C19       1.0  0.6415398518971221  0.5249679805533092  0.10063415627952878  1.0000
  C   C20       1.0  0.358460147892308  0.47503201918762544  0.8993658433245729  1.0000
  C   C21       1.0  0.5273246465918565  0.5463166131879359  0.18840728437610235  1.0000
  C   C22       1.0  0.47267535319757364  0.4536833865529988  0.8115927152279994  1.0000
  C   C23       1.0  0.44231358218114947  0.6155325776055656  0.15867900519396824  1.0000
  C   C24       1.0  0.557686418408633  0.38446742296478215  0.8413209944082264  1.0000
  C   C25       1.0  0.4838828983017574  0.919520752673063  0.8926145941405385  1.0000
  C   C26       1.0  0.5161171014343624  0.08047924789767616  0.10738540546691243  1.0000
  C   C27       1.0  0.4844234858364433  0.9478344461331323  0.9989306387201946  1.0000
  C   C28       1.0  0.5155765135148657  0.052165554281143806  0.0010693617540172495  1.0000
  C   C29       1.0  0.7284572063310313  0.32152081600505067  0.45542151268424824  1.0000
  C   C30       1.0  0.2715427934050885  0.6784791845656885  0.5445784869232027  1.0000
  C   C31       1.0  0.7037871656509527  0.24244463930505405  0.5571206150502935  1.0000
  C   C32       1.0  0.2962128345540189  0.7575553611088306  0.442879385418662  1.0000
  C   C33       1.0  0.5802112517760125  0.2235615677514789  0.6401643525656328  1.0000
  C   C34       1.0  0.41978874886708023  0.7764384319890643  0.35983564703321264  1.0000
  C   C35       1.0  0.48151220030740244  0.2801307296717495  0.6208100645565038  1.0000
  C   C36       1.0  0.5184877994287175  0.7198692708989897  0.3791899350509471  1.0000
  C   C37       1.0  0.5070609043218097  0.358285874974668  0.5182444521650773  1.0000
  C   C38       1.0  0.4929390962679726  0.6417141255956798  0.48175554743711735  1.0000
  C   C39       1.0  0.630592755526918  0.3791890265030219  0.43615774232936494  1.0000
  C   C40       1.0  0.3694072438777012  0.6208109730814497  0.5638422581414978  1.0000
  C   C41       1.0  0.34832139845492543  0.2596035724070064  0.70812223970866  1.0000
  C   C42       1.0  0.651678600949694  0.7403964271774652  0.2918777607622026  1.0000
  C   C43       1.0  0.19469585813483084  0.11302271677830382  0.8506458612169236  1.0000
  C   C44       1.0  0.805304142123451  0.8869772828057763  0.14935413924868268  1.0000
  C   C45       1.0  0.18252433295208262  0.08029796168811563  0.9736279552692056  1.0000
  C   C46       1.0  0.8174756673061991  0.9197020378959645  0.026372045196400625  1.0000
  C   C47       1.0  0.20882831559275158  0.1594416987327768  0.027292826814034502  1.0000
  C   C48       1.0  0.7911716838118675  0.8405583008516947  0.9727071736568282  1.0000
  C   C49       1.0  0.1912389616922321  0.13137050572847608  0.1427907019047269  1.0000
  C   C50       1.0  0.8087610388975505  0.8686294948418716  0.8572092976974677  1.0000
  C   C51       1.0  0.14745667735183415  0.0235575504955076  0.2071361689018459  1.0000
  C   C52       1.0  0.8525433228531374  0.9764424499183769  0.7928638315671097  1.0000
  C   C53       1.0  0.12424363628239439  0.9434469079607614  0.15250448177285122  1.0000
  C   C54       1.0  0.875756363922577  0.05655309245312319  0.8474955186961042  1.0000
  C   C55       1.0  0.14156238453561243  0.9716213974976357  0.03694730370884757  1.0000
  C   C56       1.0  0.8584376157226694  0.0283786020864445  0.9630526967567586  1.0000
  C   C57       1.0  0.12406263870683427  0.9946217629046544  0.3334305229579725  1.0000
  C   C58       1.0  0.8759373618829482  0.0053782376656932645  0.6665694766442222  1.0000
  C   C59       1.0  0.8116898177409712  0.17733070942549897  0.5692377257449939  1.0000
  C   C60       1.0  0.18831018204845912  0.8226692903154357  0.43076227385910787  1.0000
  C   C61       1.0  0.0028493907862806485  0.4132329829077217  0.8091041678841364  1.0000
  C   C62       1.0  0.9971506094720011  0.5867670166763583  0.19089583258146994  1.0000
  C   C63       1.0  0.16345211264383744  0.3328940505345183  0.45219291933628036  1.0000
  C   C64       1.0  0.8365478879459451  0.6671059500358295  0.5478070802659141  1.0000
  N   N1        1.0  0.43957828248814873  0.8162542992392308  0.8994256183562901  1.0000
  N   N2        1.0  0.560421718154944  0.18374570050131245  0.10057438124255534  1.0000
  N   N3        1.0  0.23615242271139367  0.7952540419505565  0.8166782790181584  1.0000
  N   N4        1.0  0.7638475770780366  0.20474595779037824  0.18332172058594326  1.0000
  N   N5        1.0  0.5836900258635799  0.6409100525364101  0.9567925724351874  1.0000
  N   N6        1.0  0.41630997387254004  0.35908994803432903  0.04320742717226353  1.0000
  N   N7        1.0  0.32001408014310617  0.15226529882911916  0.7676777049267858  1.0000
  N   N8        1.0  0.679985919646324  0.8477347009118156  0.23232229467731585  1.0000
  N   N9        1.0  0.21870179462163333  0.9202442461501216  0.35196788805645307  1.0000
  N   N10       1.0  0.7812982047296756  0.07975575426415442  0.6480321124177588  1.0000
  O   O1        1.0  0.5246370633890245  0.9880471747145003  0.7976054793660771  1.0000
  O   O2        1.0  0.47536293686925724  0.011952824869579824  0.20239452109952916  1.0000
  O   O3        1.0  0.27047088212821124  0.33666787973342477  0.7214124916193608  1.0000
  O   O4        1.0  0.7295291176079087  0.6633321208373143  0.27858750798809  1.0000
  O   O5        1.0  0.9223578283936639  0.20961469286334652  0.5066266020010722  1.0000
  O   O6        1.0  0.07764217101095543  0.790385306721125  0.49337339846979034  1.0000
  Cl  Cl1       1.0  0.927859410683392  0.3329694690520299  0.9507100353795257  1.0000
  Cl  Cl2       1.0  0.07214058866791681  0.667030531362246  0.04928996509468616  1.0000
  Cl  Cl3       1.0  0.021709653133215698  0.5559418927239302  0.816173811729148  1.0000
  Cl  Cl4       1.0  0.9782903466029041  0.44405810784680877  0.18382618787830304  1.0000
  Cl  Cl5       1.0  0.9149703205603409  0.4027537965591801  0.7278396027556157  1.0000
  Cl  Cl6       1.0  0.08502967917577901  0.597246204011559  0.27216039685183524  1.0000
  Cl  Cl7       1.0  0.19283155851990522  0.21390853071570534  0.5423647197157248  1.0000
  Cl  Cl8       1.0  0.8071684412162147  0.7860914698550339  0.4576352798917261  1.0000
  Cl  Cl9       1.0  0.19988826166554288  0.4606035852690991  0.4814671964735112  1.0000
  Cl  Cl10      1.0  0.8001117377390763  0.5393964143153724  0.5185328039973514  1.0000
  Cl  Cl11      1.0  0.2523604939637596  0.32636455927926233  0.3043145616656063  1.0000
  Cl  Cl12      1.0  0.7476395062945221  0.6736354403048177  0.6956854388000001  1.0000
