data_image0
_chemical_formula_structural       H112B44C60O4Br24
_chemical_formula_sum              "H112 B44 C60 O4 Br24"
_cell_length_a       15.562071750515777
_cell_length_b       10.084607769096063
_cell_length_c       18.655844859046873
_cell_angle_alpha    90.0
_cell_angle_beta     102.29970185248386
_cell_angle_gamma    90.0

_space_group_name_H-M_alt    "P 1"
_space_group_IT_number       1

loop_
  _space_group_symop_operation_xyz
  'x, y, z'

loop_
  _atom_site_type_symbol
  _atom_site_label
  _atom_site_symmetry_multiplicity
  _atom_site_fract_x
  _atom_site_fract_y
  _atom_site_fract_z
  _atom_site_occupancy
  H   H1        1.0  0.9611578982730636  0.0  0.21275423836577717  1.0000
  H   H2        1.0  0.4611578985759682  0.49999999954901253  0.21275423810245417  1.0000
  H   H3        1.0  0.03884210139585439  0.0  0.7872457617739332  1.0000
  H   H4        1.0  0.5388421017359497  0.49999999954901253  0.7872457620388802  1.0000
  H   H5        1.0  0.0284261965185166  0.13716865659753782  0.10900375677678206  1.0000
  H   H6        1.0  0.5284261968586119  0.6371686561465503  0.109003757041729  1.0000
  H   H7        1.0  0.9715738030122009  0.13716865659753782  0.890996242814313  1.0000
  H   H8        1.0  0.471573803453306  0.6371686561465503  0.8909962430996055  1.0000
  H   H9        1.0  0.9715738030122009  0.8628313434920973  0.890996242814313  1.0000
  H   H10       1.0  0.471573803453306  0.3628313439430849  0.8909962430996055  1.0000
  H   H11       1.0  0.0284261965185166  0.8628313434920973  0.10900375677678206  1.0000
  H   H12       1.0  0.5284261968586119  0.3628313439430849  0.109003757041729  1.0000
  H   H13       1.0  0.14382788673680869  0.15731901986924837  0.11906674740333426  1.0000
  H   H14       1.0  0.6438278864339041  0.6573190194182609  0.11906674766665722  1.0000
  H   H15       1.0  0.8561721135751093  0.15731901986924837  0.880933252738  1.0000
  H   H16       1.0  0.35617211323501397  0.6573190194182609  0.8809332524730532  1.0000
  H   H17       1.0  0.8561721135751093  0.8426809802203868  0.880933252738  1.0000
  H   H18       1.0  0.35617211323501397  0.34268098067137437  0.8809332524730532  1.0000
  H   H19       1.0  0.14382788673680869  0.8426809802203868  0.11906674740333426  1.0000
  H   H20       1.0  0.6438278864339041  0.34268098067137437  0.11906674766665722  1.0000
  H   H21       1.0  0.08194428783771578  0.2762147516075065  0.1560012035655259  1.0000
  H   H22       1.0  0.5819442880396105  0.7762147521481293  0.15600120328185765  1.0000
  H   H23       1.0  0.9180557118312023  0.2762147516075065  0.8439987965741845  1.0000
  H   H24       1.0  0.4180557122723075  0.7762147521481293  0.8439987968594767  1.0000
  H   H25       1.0  0.9180557118312023  0.7237852484821287  0.8439987965741845  1.0000
  H   H26       1.0  0.4180557122723075  0.22378524794150595  0.8439987968594767  1.0000
  H   H27       1.0  0.08194428783771578  0.7237852484821287  0.1560012035655259  1.0000
  H   H28       1.0  0.5819442880396105  0.22378524794150595  0.15600120328185765  1.0000
  H   H29       1.0  0.9342883561429661  0.2567168559528474  0.24904430970476352  1.0000
  H   H30       1.0  0.4342883565840713  0.7567168555018599  0.24904430999005575  1.0000
  H   H31       1.0  0.06571164338775135  0.2567168559528474  0.7509556898863317  1.0000
  H   H32       1.0  0.5657116437278467  0.7567168555018599  0.7509556901512786  1.0000
  H   H33       1.0  0.06571164338775135  0.7432831441367879  0.7509556898863317  1.0000
  H   H34       1.0  0.5657116437278467  0.24328314458777534  0.7509556901512786  1.0000
  H   H35       1.0  0.9342883561429661  0.7432831441367879  0.24904430970476352  1.0000
  H   H36       1.0  0.4342883565840713  0.24328314458777534  0.24904430999005575  1.0000
  H   H37       1.0  0.029700192873617033  0.35697115568855475  0.2651103673287286  1.0000
  H   H38       1.0  0.5297001932137123  0.8569711552375674  0.26511036759367557  1.0000
  H   H39       1.0  0.9702998073001003  0.35697115568855475  0.7348896322639905  1.0000
  H   H40       1.0  0.4702998070982055  0.8569711552375674  0.7348896325476587  1.0000
  H   H41       1.0  0.9702998073001003  0.6430288444010805  0.7348896322639905  1.0000
  H   H42       1.0  0.4702998070982055  0.14302884485206793  0.7348896325476587  1.0000
  H   H43       1.0  0.029700192873617033  0.6430288444010805  0.2651103673287286  1.0000
  H   H44       1.0  0.5297001932137123  0.14302884485206793  0.26511036759367557  1.0000
  H   H45       1.0  0.983924771589719  0.3046916707475894  0.33950468379433235  1.0000
  H   H46       1.0  0.4839247712496238  0.8046916712882121  0.33950468352938545  1.0000
  H   H47       1.0  0.016075228722198878  0.3046916707475894  0.6604953163470019  1.0000
  H   H48       1.0  0.5160752284192943  0.8046916712882121  0.6604953166103249  1.0000
  H   H49       1.0  0.016075228722198878  0.6953083283504357  0.6604953163470019  1.0000
  H   H50       1.0  0.5160752284192943  0.1953083288014231  0.6604953166103249  1.0000
  H   H51       1.0  0.983924771589719  0.6953083283504357  0.33950468379433235  1.0000
  H   H52       1.0  0.4839247712496238  0.1953083288014231  0.33950468352938545  1.0000
  H   H53       1.0  0.8833376867775807  0.0  0.3268733488981651  1.0000
  H   H54       1.0  0.38333768721868583  0.49999999954901253  0.3268733491834574  1.0000
  H   H55       1.0  0.1166623128913374  0.0  0.6731266512415454  1.0000
  H   H56       1.0  0.616662313093232  0.49999999954901253  0.6731266509578769  1.0000
  H   H57       1.0  0.9379457062358861  0.087657805860231  0.40608435604925985  1.0000
  H   H58       1.0  0.4379457058957908  0.5876578064008537  0.40608435578431296  1.0000
  H   H59       1.0  0.06205429407603183  0.087657805860231  0.5939156440920744  1.0000
  H   H60       1.0  0.5620542937731272  0.5876578064008537  0.5939156443553975  1.0000
  H   H61       1.0  0.06205429407603183  0.9123421942294042  0.5939156440920744  1.0000
  H   H62       1.0  0.5620542937731272  0.4123421936887815  0.5939156443553975  1.0000
  H   H63       1.0  0.9379457062358861  0.9123421942294042  0.40608435604925985  1.0000
  H   H64       1.0  0.4379457058957908  0.4123421936887815  0.40608435578431296  1.0000
  H   H65       1.0  0.303517120457457  0.08157973406969132  0.6033337103061801  1.0000
  H   H66       1.0  0.8035171207975522  0.5815797336187039  0.6033337105711271  1.0000
  H   H67       1.0  0.6964828792114611  0.08157973406969132  0.39666628983353025  1.0000
  H   H68       1.0  0.19648287951436558  0.5815797336187039  0.3966662895702072  1.0000
  H   H69       1.0  0.6964828792114611  0.9184202660199439  0.39666628983353025  1.0000
  H   H70       1.0  0.19648287951436558  0.41842026647093133  0.3966662895702072  1.0000
  H   H71       1.0  0.303517120457457  0.9184202660199439  0.6033337103061801  1.0000
  H   H72       1.0  0.8035171207975522  0.41842026647093133  0.6033337105711271  1.0000
  H   H73       1.0  0.3167160897734477  0.0  0.5271841846841171  1.0000
  H   H74       1.0  0.8167160893323425  0.49999999954901253  0.5271841843988248  1.0000
  H   H75       1.0  0.6832839105384702  0.0  0.4728158154572173  1.0000
  H   H76       1.0  0.18328391019837495  0.49999999954901253  0.4728158151922703  1.0000
  H   H77       1.0  0.7643434299219707  0.0  0.1984153843180532  1.0000
  H   H78       1.0  0.26434342972007596  0.49999999954901253  0.1984153846017215  1.0000
  H   H79       1.0  0.23565657025174663  0.0  0.8015846152746658  1.0000
  H   H80       1.0  0.7356565705918419  0.49999999954901253  0.8015846155396128  1.0000
  H   H81       1.0  0.7961678862138009  0.7861011981342122  0.1431994770669733  1.0000
  H   H82       1.0  0.2961678858737056  0.2861011985851996  0.14319947680202635  1.0000
  H   H83       1.0  0.20383211409811702  0.7861011981342122  0.856800523074361  1.0000
  H   H84       1.0  0.7038321137952124  0.2861011985851996  0.856800523337684  1.0000
  H   H85       1.0  0.20383211409811702  0.21389880195542307  0.856800523074361  1.0000
  H   H86       1.0  0.7038321137952124  0.7138988015044356  0.856800523337684  1.0000
  H   H87       1.0  0.7961678862138009  0.21389880195542307  0.1431994770669733  1.0000
  H   H88       1.0  0.2961678858737056  0.7138988015044356  0.14319947680202635  1.0000
  H   H89       1.0  0.8603804735210749  0.7859288443808687  0.03165729609985174  1.0000
  H   H90       1.0  0.3603804738239794  0.28592884384024597  0.03165729583652876  1.0000
  H   H91       1.0  0.1396195261478433  0.7859288443808687  0.9683427040398588  1.0000
  H   H92       1.0  0.639619526349738  0.28592884384024597  0.9683427037561904  1.0000
  H   H93       1.0  0.1396195261478433  0.21407115570876653  0.9683427040398588  1.0000
  H   H94       1.0  0.639619526349738  0.7140711562493892  0.9683427037561904  1.0000
  H   H95       1.0  0.8603804735210749  0.21407115570876653  0.03165729609985174  1.0000
  H   H96       1.0  0.3603804738239794  0.7140711562493892  0.03165729583652876  1.0000
  H   H97       1.0  0.8921850370502042  0.0  0.9762249156233543  1.0000
  H   H98       1.0  0.3921850368483094  0.49999999954901253  0.9762249159070227  1.0000
  H   H99       1.0  0.10781496326171375  0.0  0.023775084517979883  1.0000
  H   H100      1.0  0.6078149634636084  0.49999999954901253  0.023775084234311593  1.0000
  H   H101      1.0  0.16092921978963012  0.49999999954901253  0.0033778081318582664  1.0000
  H   H102      1.0  0.6609292193485249  0.0  0.0033778078465660165  1.0000
  H   H103      1.0  0.8390707805222878  0.49999999954901253  0.9966221920094759  1.0000
  H   H104      1.0  0.3390707801821925  0.0  0.9966221917445293  1.0000
  H   H105      1.0  0.10763203297967906  0.49999999954901253  0.1192953035823367  1.0000
  H   H106      1.0  0.6076320331815738  0.0  0.11929530329866839  1.0000
  H   H107      1.0  0.892367966689239  0.49999999954901253  0.8807046965573737  1.0000
  H   H108      1.0  0.39236796699214355  0.0  0.8807046962940506  1.0000
  H   H109      1.0  0.05313052426611983  0.49999999954901253  0.8833799401089644  1.0000
  H   H110      1.0  0.5531305244680145  0.0  0.8833799398252958  1.0000
  H   H111      1.0  0.9468694760457981  0.49999999954901253  0.11662006003237  1.0000
  H   H112      1.0  0.4468694758439034  0.0  0.11662006031603828  1.0000
  B   B1        1.0  0.10551238538526823  0.08923234999358436  0.221079069388723  1.0000
  B   B2        1.0  0.6055123849441632  0.5892323505342071  0.22107906910343073  1.0000
  B   B3        1.0  0.8944876149266497  0.08923234999358436  0.7789209307526114  1.0000
  B   B4        1.0  0.3944876145865544  0.5892323505342071  0.7789209304876644  1.0000
  B   B5        1.0  0.8944876149266497  0.9107676500960508  0.7789209307526114  1.0000
  B   B6        1.0  0.3944876145865544  0.4107676495554281  0.7789209304876644  1.0000
  B   B7        1.0  0.10551238538526823  0.9107676500960508  0.221079069388723  1.0000
  B   B8        1.0  0.6055123849441632  0.4107676495554281  0.22107906910343073  1.0000
  B   B9        1.0  0.057317393743959305  0.1445332434709703  0.2953447024173612  1.0000
  B   B10       1.0  0.557317393945854  0.6445332440115931  0.2953447021336929  1.0000
  B   B11       1.0  0.9426826059249588  0.1445332434709703  0.7046552977223492  1.0000
  B   B12       1.0  0.4426826062278633  0.6445332440115931  0.7046552974590262  1.0000
  B   B13       1.0  0.9426826059249588  0.8554667566186649  0.7046552977223492  1.0000
  B   B14       1.0  0.4426826062278633  0.3554667560780422  0.7046552974590262  1.0000
  B   B15       1.0  0.057317393743959305  0.8554667566186649  0.2953447024173612  1.0000
  B   B16       1.0  0.557317393945854  0.3554667560780422  0.2953447021336929  1.0000
  B   B17       1.0  0.027779920731363147  0.0  0.3407385656113954  1.0000
  B   B18       1.0  0.5277799210714585  0.49999999954901253  0.3407385658763424  1.0000
  B   B19       1.0  0.9722200794423541  0.0  0.6592614339813236  1.0000
  B   B20       1.0  0.47222007924045944  0.49999999954901253  0.659261434264992  1.0000
  B   B21       1.0  0.1258528660246415  0.08787918680544153  0.3786522927023058  1.0000
  B   B22       1.0  0.6258528657217369  0.5878791873460643  0.3786522929656288  1.0000
  B   B23       1.0  0.8741471342872764  0.08787918680544153  0.6213477074390285  1.0000
  B   B24       1.0  0.37414713394718113  0.5878791873460643  0.6213477071740816  1.0000
  B   B25       1.0  0.8741471342872764  0.9121208122925836  0.6213477074390285  1.0000
  B   B26       1.0  0.37414713394718113  0.41212081274357104  0.6213477071740816  1.0000
  B   B27       1.0  0.1258528660246415  0.9121208122925836  0.3786522927023058  1.0000
  B   B28       1.0  0.6258528657217369  0.41212081274357104  0.3786522929656288  1.0000
  B   B29       1.0  0.17309834122281792  0.14139088526274018  0.30532192505442923  1.0000
  B   B30       1.0  0.6730983415629131  0.6413908858033629  0.3053219253193762  1.0000
  B   B31       1.0  0.8269016584461001  0.14139088526274018  0.6946780750852811  1.0000
  B   B32       1.0  0.32690165874900473  0.6413908858033629  0.6946780748219581  1.0000
  B   B33       1.0  0.8269016584461001  0.858609114826895  0.6946780750852811  1.0000
  B   B34       1.0  0.32690165874900473  0.3586091142862723  0.6946780748219581  1.0000
  B   B35       1.0  0.17309834122281792  0.858609114826895  0.30532192505442923  1.0000
  B   B36       1.0  0.6730983415629131  0.3586091142862723  0.3053219253193762  1.0000
  B   B37       1.0  0.2031399944543766  0.0  0.25951958573966405  1.0000
  B   B38       1.0  0.703139994151472  0.49999999954901253  0.25951958600298697  1.0000
  B   B39       1.0  0.7968600058575415  0.0  0.7404804144016703  1.0000
  B   B40       1.0  0.29686000551744607  0.49999999954901253  0.7404804141367235  1.0000
  B   B41       1.0  0.21628187934079107  0.0  0.35690989369948073  1.0000
  B   B42       1.0  0.7162818795426857  0.49999999954901253  0.3569098934158124  1.0000
  B   B43       1.0  0.783718120328127  0.0  0.6430901064402297  1.0000
  B   B44       1.0  0.2837181206310316  0.49999999954901253  0.6430901061769067  1.0000
  C   C1        1.0  0.025894828013306614  0.0  0.24928331852148855  1.0000
  C   C2        1.0  0.525894828353402  0.49999999954901253  0.24928331878643548  1.0000
  C   C3        1.0  0.9741051716556115  0.0  0.7507166816182219  1.0000
  C   C4        1.0  0.47410517195851604  0.49999999954901253  0.7507166813548989  1.0000
  C   C5        1.0  0.0888019230061022  0.16964427959634445  0.14684359882767622  1.0000
  C   C6        1.0  0.588801923207997  0.669644279145357  0.14684359854400794  1.0000
  C   C7        1.0  0.9111980766628158  0.16964427959634445  0.8531564013120342  1.0000
  C   C8        1.0  0.411198077103921  0.669644279145357  0.8531564015973264  1.0000
  C   C9        1.0  0.9111980766628158  0.8303557204932908  0.8531564013120342  1.0000
  C   C10       1.0  0.411198077103921  0.3303557209442783  0.8531564015973264  1.0000
  C   C11       1.0  0.0888019230061022  0.8303557204932908  0.14684359882767622  1.0000
  C   C12       1.0  0.588801923207997  0.3303557209442783  0.14684359854400794  1.0000
  C   C13       1.0  0.9978995547304409  0.27302380747395155  0.2867685269606333  1.0000
  C   C14       1.0  0.4978995543903455  0.773023807022964  0.2867685266956864  1.0000
  C   C15       1.0  0.002100445581477114  0.27302380747395155  0.713231473180701  1.0000
  C   C16       1.0  0.502100445140372  0.773023807022964  0.7132314728954088  1.0000
  C   C17       1.0  0.002100445581477114  0.7269761926156836  0.713231473180701  1.0000
  C   C18       1.0  0.502100445140372  0.22697619306667116  0.7132314728954088  1.0000
  C   C19       1.0  0.9978995547304409  0.7269761926156836  0.2867685269606333  1.0000
  C   C20       1.0  0.4978995543903455  0.22697619306667116  0.2867685266956864  1.0000
  C   C21       1.0  0.9415155809055905  0.0  0.3720129049617978  1.0000
  C   C22       1.0  0.4415155807036958  0.49999999954901253  0.3720129052454661  1.0000
  C   C23       1.0  0.05848441940632742  0.0  0.6279870951795365  1.0000
  C   C24       1.0  0.5584844189652223  0.49999999954901253  0.6279870948942443  1.0000
  C   C25       1.0  0.792610977846396  0.0  0.14978618919819864  1.0000
  C   C26       1.0  0.2926109776445013  0.49999999954901253  0.14978618948186695  1.0000
  C   C27       1.0  0.20738902246552193  0.0  0.8502138109431358  1.0000
  C   C28       1.0  0.7073890220244167  0.49999999954901253  0.8502138106578434  1.0000
  C   C29       1.0  0.8103382134405789  0.8796204168875793  0.11865016970196463  1.0000
  C   C30       1.0  0.31033821310048354  0.3796204173385667  0.11865016943701767  1.0000
  C   C31       1.0  0.18966178687133914  0.8796204168875793  0.8813498304393698  1.0000
  C   C32       1.0  0.689661786430234  0.3796204173385667  0.8813498301540775  1.0000
  C   C33       1.0  0.18966178687133914  0.12037958320205601  0.8813498304393698  1.0000
  C   C34       1.0  0.689661786430234  0.6203795827510685  0.8813498301540775  1.0000
  C   C35       1.0  0.8103382134405789  0.12037958320205601  0.11865016970196463  1.0000
  C   C36       1.0  0.31033821310048354  0.6203795827510685  0.11865016943701767  1.0000
  C   C37       1.0  0.8462120845835123  0.8796345195679468  0.05603559755578033  1.0000
  C   C38       1.0  0.3462120850246173  0.3796345200189343  0.05603559784107259  1.0000
  C   C39       1.0  0.15378791508540587  0.8796345195679468  0.9439644025839301  1.0000
  C   C40       1.0  0.6537879152873006  0.3796345200189343  0.9439644023002616  1.0000
  C   C41       1.0  0.15378791508540587  0.12036548052168841  0.9439644025839301  1.0000
  C   C42       1.0  0.6537879152873006  0.6203654800707009  0.9439644023002616  1.0000
  C   C43       1.0  0.8462120845835123  0.12036548052168841  0.05603559755578033  1.0000
  C   C44       1.0  0.3462120850246173  0.6203654800707009  0.05603559784107259  1.0000
  C   C45       1.0  0.8641425315153035  0.0  0.024941363124832482  1.0000
  C   C46       1.0  0.36414253131340873  0.49999999954901253  0.02494136340850077  1.0000
  C   C47       1.0  0.13585746879661445  0.0  0.9750586370165018  1.0000
  C   C48       1.0  0.6358574683555094  0.49999999954901253  0.9750586367312097  1.0000
  C   C49       1.0  0.09041386873581338  0.49999999954901253  0.001675653858701423  1.0000
  C   C50       1.0  0.5904138684329088  0.0  0.0016756541220244048  1.0000
  C   C51       1.0  0.9095861315761047  0.49999999954901253  0.9983243462826329  1.0000
  C   C52       1.0  0.4095861312360093  0.0  0.998324346017686  1.0000
  C   C53       1.0  0.06018481894126565  0.49999999954901253  0.06703993941781379  1.0000
  C   C54       1.0  0.5601848191431603  0.0  0.06703993913414551  1.0000
  C   C55       1.0  0.9398151807276524  0.49999999954901253  0.9329600607218965  1.0000
  C   C56       1.0  0.43981518103055706  0.0  0.9329600604585737  1.0000
  C   C57       1.0  0.029946848627330203  0.49999999954901253  0.9345481444467674  1.0000
  C   C58       1.0  0.5299468481862251  0.0  0.9345481441614751  1.0000
  C   C59       1.0  0.9700531516845878  0.49999999954901253  0.06545185569456696  1.0000
  C   C60       1.0  0.47005315134449244  0.0  0.06545185542962001  1.0000
  O   O1        1.0  0.327898805644661  0.0  0.5830981229027921  1.0000
  O   O2        1.0  0.8278988053417565  0.49999999954901253  0.583098123166115  1.0000
  O   O3        1.0  0.6721011946672569  0.0  0.4169018772385424  1.0000
  O   O4        1.0  0.17210119432716162  0.49999999954901253  0.4169018769735954  1.0000
  Br  Br1       1.0  0.13467447222954526  0.1881735456103016  0.46983109369084447  1.0000
  Br  Br2       1.0  0.63467447243144  0.6881735451593142  0.4698310934071761  1.0000
  Br  Br3       1.0  0.8653255280823727  0.1881735456103016  0.53016890645049  1.0000
  Br  Br4       1.0  0.36532552788047795  0.6881735451593142  0.5301689067341582  1.0000
  Br  Br5       1.0  0.8653255280823727  0.8118264544793335  0.53016890645049  1.0000
  Br  Br6       1.0  0.36532552788047795  0.31182645493032113  0.5301689067341582  1.0000
  Br  Br7       1.0  0.13467447222954526  0.8118264544793335  0.46983109369084447  1.0000
  Br  Br8       1.0  0.63467447243144  0.31182645493032113  0.4698310934071761  1.0000
  Br  Br9       1.0  0.24356022892228105  0.30532509746544106  0.3120347836855326  1.0000
  Br  Br10      1.0  0.7435602284811759  0.8053250980060638  0.3120347834002403  1.0000
  Br  Br11      1.0  0.7564397713896369  0.30532509746544106  0.6879652164558019  1.0000
  Br  Br12      1.0  0.2564397710495416  0.8053250980060638  0.6879652161908548  1.0000
  Br  Br13      1.0  0.7564397713896369  0.6946749026241942  0.6879652164558019  1.0000
  Br  Br14      1.0  0.2564397710495416  0.19467490208357144  0.6879652161908548  1.0000
  Br  Br15      1.0  0.24356022892228105  0.6946749026241942  0.3120347836855326  1.0000
  Br  Br16      1.0  0.7435602284811759  0.19467490208357144  0.3120347834002403  1.0000
  Br  Br17      1.0  0.3034649073620681  0.0  0.21136912744474826  1.0000
  Br  Br18      1.0  0.803464906920963  0.49999999954901253  0.21136912715945602  1.0000
  Br  Br19      1.0  0.6965350929498498  0.0  0.788630872696586  1.0000
  Br  Br20      1.0  0.19653509260975455  0.49999999954901253  0.7886308724316392  1.0000
  Br  Br21      1.0  0.3360421565051938  0.0  0.4185960071499254  1.0000
  Br  Br22      1.0  0.836042156845289  0.49999999954901253  0.4185960074148723  1.0000
  Br  Br23      1.0  0.6639578430255236  0.0  0.5814039924411698  1.0000
  Br  Br24      1.0  0.16395784346662884  0.49999999954901253  0.5814039927264621  1.0000
