data_image0
_chemical_formula_structural       H32C20N32O24
_chemical_formula_sum              "H32 C20 N32 O24"
_cell_length_a       5.268586952364996
_cell_length_b       7.871121213178043
_cell_length_c       25.03954023931025
_cell_angle_alpha    90.0
_cell_angle_beta     90.0
_cell_angle_gamma    90.0

_space_group_name_H-M_alt    "P 1"
_space_group_IT_number       1

loop_
  _space_group_symop_operation_xyz
  'x, y, z'

loop_
  _atom_site_type_symbol
  _atom_site_label
  _atom_site_symmetry_multiplicity
  _atom_site_fract_x
  _atom_site_fract_y
  _atom_site_fract_z
  _atom_site_occupancy
  H   H1        1.0  0.9275271081568469  0.008258875481572333  0.45196606534464645  1.0000
  H   H2        1.0  0.5724728902208028  0.9917411253851349  0.9519660653584197  1.0000
  H   H3        1.0  0.07247289139426691  0.508258874644459  0.04803393466912679  1.0000
  H   H4        1.0  0.42752710933031113  0.4917411249517813  0.5480339346829001  1.0000
  H   H5        1.0  0.7253850898834397  0.8752473355976216  0.41828512544160484  1.0000
  H   H6        1.0  0.7746149103922523  0.12475266399861867  0.9182851254553781  1.0000
  H   H7        1.0  0.27461490966767416  0.37524733643473496  0.08171487457216838  1.0000
  H   H8        1.0  0.22538509105690382  0.6247526631615052  0.5817148745859416  1.0000
  H   H9        1.0  0.483012880494964  0.2552252297470189  0.39082584330508346  1.0000
  H   H10       1.0  0.01698712022961404  0.7447747711196884  0.8908258433188567  1.0000
  H   H11       1.0  0.5169871190561499  0.7552252289099055  0.10917415670868974  1.0000
  H   H12       1.0  0.9830128793214999  0.24477477068633471  0.609174156722463  1.0000
  H   H13       1.0  0.35178090003203605  0.11436143665186355  0.4356000308215106  1.0000
  H   H14       1.0  0.14821910069254193  0.8856385629443767  0.9356000308352838  1.0000
  H   H15       1.0  0.6482191014171199  0.6143614370852172  0.06439996919226261  1.0000
  H   H16       1.0  0.851780898858572  0.3856385637814901  0.5643999692060359  1.0000
  H   H17       1.0  0.7373337984402457  0.4464984892007538  0.2891230857599573  1.0000
  H   H18       1.0  0.7626662018354461  0.5535015116659535  0.7891230857737306  1.0000
  H   H19       1.0  0.2626662011108682  0.9464984883636404  0.2108769142538159  1.0000
  H   H20       1.0  0.2373337977156677  0.05350151123259986  0.7108769142675891  1.0000
  H   H21       1.0  0.14312955576475764  0.6471738246733536  0.2971367764300831  1.0000
  H   H22       1.0  0.3568704430617783  0.3528261761933537  0.7971367764438564  1.0000
  H   H23       1.0  0.8568704437863564  0.1471738242399999  0.2028632235836901  1.0000
  H   H24       1.0  0.6431295564893356  0.8528261753562404  0.7028632235974633  1.0000
  H   H25       1.0  0.44991828955882474  0.39172485297746823  0.21962197098837324  1.0000
  H   H26       1.0  0.05008171116575327  0.608275146618772  0.7196219710021465  1.0000
  H   H27       1.0  0.5500817099922891  0.8917248534108219  0.2803780290254  1.0000
  H   H28       1.0  0.9499182883853606  0.10827514745588539  0.7803780290391732  1.0000
  H   H29       1.0  0.422251434799112  0.27262706060317166  0.26986356200708495  1.0000
  H   H30       1.0  0.07774856592546603  0.7273729389930687  0.7698635620208581  1.0000
  H   H31       1.0  0.577748566650044  0.7726270610365253  0.2301364380066883  1.0000
  H   H32       1.0  0.9222514336256479  0.22737293855971494  0.7301364380204615  1.0000
  C   C1        1.0  0.17895493393665496  0.12166565271497598  0.3631877371982653  1.0000
  C   C2        1.0  0.32104506488988094  0.8783343468812643  0.8631877372120386  1.0000
  C   C3        1.0  0.8210450656144589  0.6216656531483297  0.13681226281550793  1.0000
  C   C4        1.0  0.678954934661233  0.37833434771837765  0.6368122628292812  1.0000
  C   C5        1.0  0.9625689479649812  0.010512335886972238  0.3710840479176448  1.0000
  C   C6        1.0  0.5374310523107108  0.989487663709268  0.871084047931418  1.0000
  C   C7        1.0  0.03743105158613273  0.5105123363203259  0.1289159520961284  1.0000
  C   C8        1.0  0.46256894913844526  0.48948766454638143  0.6289159521099016  1.0000
  C   C9        1.0  0.09707900517242267  0.5866659126362954  0.38456363846819785  1.0000
  C   C10       1.0  0.4029209955521553  0.41333408823041196  0.8845636384819712  1.0000
  C   C11       1.0  0.9029209962767333  0.08666591220294168  0.11543636154557535  1.0000
  C   C12       1.0  0.5970790039989585  0.9133340873932986  0.6154363615593486  1.0000
  C   C13       1.0  0.9108075397419311  0.47996299227040584  0.4076344474558598  1.0000
  C   C14       1.0  0.5891924605337608  0.5200370073258344  0.907634447469633  1.0000
  C   C15       1.0  0.08919245980918285  0.9799629927037594  0.09236555255791347  1.0000
  C   C16       1.0  0.41080753901735306  0.020037008162947796  0.5923655525716868  1.0000
  C   C17       1.0  0.04332203151692193  0.5864087205609642  0.32998277208893373  1.0000
  C   C18       1.0  0.4566779692076561  0.41359127903527604  0.8299827721027071  1.0000
  C   C19       1.0  0.956677968034192  0.0864087213980776  0.17001722792483948  1.0000
  C   C20       1.0  0.5433220303434578  0.9135912794686296  0.6700172279386127  1.0000
  N   N1        1.0  0.19818445428357118  0.15714087186577574  0.31196168641054794  1.0000
  N   N2        1.0  0.3018155445429647  0.8428591277304645  0.8119616864243211  1.0000
  N   N3        1.0  0.8018155452675427  0.6571408722991293  0.1880383136032253  1.0000
  N   N4        1.0  0.6981844550081492  0.3428591285675779  0.6880383136169985  1.0000
  N   N5        1.0  0.8936983203601504  0.9395146713811288  0.4183823544632535  1.0000
  N   N6        1.0  0.6063016799155416  0.06048532821511144  0.9183823544770267  1.0000
  N   N7        1.0  0.10630167919096352  0.4395146722182422  0.08161764555051974  1.0000
  N   N8        1.0  0.39369831963557234  0.560485328648465  0.581617645564293  1.0000
  N   N9        1.0  0.3271398319100182  0.18652997079271252  0.40222439804180027  1.0000
  N   N10       1.0  0.17286016691651762  0.8134700288035277  0.9022243980555735  1.0000
  N   N11       1.0  0.6728601676410956  0.6865299712260662  0.09777560197197298  1.0000
  N   N12       1.0  0.8271398326345963  0.31347002964064113  0.5977756019857462  1.0000
  N   N13       1.0  0.8537662091693954  0.9814892936810442  0.3244921105717482  1.0000
  N   N14       1.0  0.6462337911062965  0.018510705915196064  0.8244921105855214  1.0000
  N   N15       1.0  0.14623379227976066  0.4814892945181576  0.17550788944202503  1.0000
  N   N16       1.0  0.3537662084448174  0.5185107063485497  0.6755078894557982  1.0000
  N   N17       1.0  0.7537715398656055  0.4206163722211646  0.3703684565038748  1.0000
  N   N18       1.0  0.7462284604100864  0.5793836273750756  0.8703684565176479  1.0000
  N   N19       1.0  0.24622845968550844  0.9206163726545182  0.12963154350989844  1.0000
  N   N20       1.0  0.25377153914102746  0.079383626941722  0.6296315435236717  1.0000
  N   N21       1.0  0.8374377266411943  0.48631354623167783  0.3239606359570863  1.0000
  N   N22       1.0  0.6625622736344976  0.5136864546350294  0.8239606359708594  1.0000
  N   N23       1.0  0.16256227480796173  0.9863135453945644  0.17603936405668696  1.0000
  N   N24       1.0  0.33743772591661625  0.013686454201675783  0.6760393640704602  1.0000
  N   N25       1.0  0.8605812585032366  0.4354857900372757  0.4624288325319092  1.0000
  N   N26       1.0  0.6394187417724552  0.5645142095589645  0.9624288325456825  1.0000
  N   N27       1.0  0.13941874104787724  0.9354857904706294  0.037571167481864065  1.0000
  N   N28       1.0  0.3605812596767008  0.06451420912561086  0.5375711674956374  1.0000
  N   N29       1.0  0.3158577404237388  0.6618557240965922  0.4078885036381699  1.0000
  N   N30       1.0  0.18414225840279705  0.33814427549964804  0.9078885036519431  1.0000
  N   N31       1.0  0.684142259127375  0.16185572493370556  0.09211149637560334  1.0000
  N   N32       1.0  0.8158577411483168  0.8381442759330018  0.5921114963893765  1.0000
  O   O1        1.0  0.9974818746497028  0.07160579220357778  0.28699063726091606  1.0000
  O   O2        1.0  0.5025181256259891  0.9283942073926624  0.7869906372746893  1.0000
  O   O3        1.0  0.002518124901411117  0.5716057926369315  0.21300936275285715  1.0000
  O   O4        1.0  0.4974818739251248  0.42839420695930885  0.7130093627666304  1.0000
  O   O5        1.0  0.3888508927579471  0.61168933365416  0.4521354418571329  1.0000
  O   O6        1.0  0.11114910606858881  0.38831066721254726  0.9521354418709063  1.0000
  O   O7        1.0  0.6111491067931668  0.11168933322080636  0.047864558156640286  1.0000
  O   O8        1.0  0.8888508934825251  0.8883106663754339  0.5478645581704135  1.0000
  O   O9        1.0  0.42876624993082246  0.7718268103696375  0.38073196547887617  1.0000
  O   O10       1.0  0.07123375079375552  0.22817318922660268  0.8807319654926494  1.0000
  O   O11       1.0  0.5712337496202915  0.2718268099362839  0.1192680345348971  1.0000
  O   O12       1.0  0.9287662506554006  0.7281731896599563  0.6192680345486703  1.0000
  O   O13       1.0  0.931503141994648  0.5352766214483017  0.4977384261406597  1.0000
  O   O14       1.0  0.5684968582810439  0.4647233781479385  0.997738426154433  1.0000
  O   O15       1.0  0.06849685755646592  0.035276622285415095  0.0022615738731135713  1.0000
  O   O16       1.0  0.43150314127007  0.9647233785812922  0.5022615738868869  1.0000
  O   O17       1.0  0.7436635525662605  0.3012530712943506  0.4708175967820704  1.0000
  O   O18       1.0  0.7563364477094314  0.6987469283018897  0.9708175967958437  1.0000
  O   O19       1.0  0.2563364469848534  0.8012530717277042  0.029182403231702812  1.0000
  O   O20       1.0  0.24366355373972462  0.198746927868536  0.529182403245476  1.0000
  O   O21       1.0  0.5484359366419779  0.3380002756844626  0.24849051182784004  1.0000
  O   O22       1.0  0.9515640636337142  0.6619997239117776  0.7484905118416133  1.0000
  O   O23       1.0  0.45156406290913603  0.8380002761178162  0.2515094881859332  1.0000
  O   O24       1.0  0.048435937815442004  0.16199972474889102  0.7515094881997065  1.0000
