data_image0
_chemical_formula_structural       H18C14N6O6Cl2
_chemical_formula_sum              "H18 C14 N6 O6 Cl2"
_cell_length_a       4.992139606690514
_cell_length_b       8.50835843973118
_cell_length_c       10.907561853200898
_cell_angle_alpha    82.30100269504662
_cell_angle_beta     88.60647338887316
_cell_angle_gamma    86.2351485085534

_space_group_name_H-M_alt    "P 1"
_space_group_IT_number       1

loop_
  _space_group_symop_operation_xyz
  'x, y, z'

loop_
  _atom_site_type_symbol
  _atom_site_label
  _atom_site_symmetry_multiplicity
  _atom_site_fract_x
  _atom_site_fract_y
  _atom_site_fract_z
  _atom_site_occupancy
  H   H1        1.0  0.8256596881267123  0.6172806646116062  0.4610497012232007  1.0000
  H   H2        1.0  0.17434031187742494  0.38271933465736135  0.5389502988935548  1.0000
  H   H3        1.0  0.1586536198667639  0.1508565372744226  0.34251375878413653  1.0000
  H   H4        1.0  0.8413463801373734  0.8491434619945448  0.6574862413326189  1.0000
  H   H5        1.0  0.010012232808639152  0.24676208331587765  0.20116040245611325  1.0000
  H   H6        1.0  0.989987767195498  0.7532379159530899  0.7988395976606423  1.0000
  H   H7        1.0  0.8044447587219737  0.1450415632465579  0.31909407550956387  1.0000
  H   H8        1.0  0.19555524116206904  0.8549584372003393  0.6809059246066462  1.0000
  H   H9        1.0  0.28600125256364106  0.4232190660973157  0.05687430001391913  1.0000
  H   H10       1.0  0.7139987473204018  0.5767809343495813  0.9431257001022909  1.0000
  H   H11       1.0  0.09003369991969198  0.6034276558780596  0.0694013510009497  1.0000
  H   H12       1.0  0.9099663000844451  0.3965723433909078  0.9305986491158057  1.0000
  H   H13       1.0  0.5450114698037666  0.9808141451400278  0.8622086845563017  1.0000
  H   H14       1.0  0.4549885302003705  0.019185854128939733  0.1377913155604537  1.0000
  H   H15       1.0  0.31929368297708155  0.8752455694094445  0.9604265010583765  1.0000
  H   H16       1.0  0.6807063169069612  0.12475443103745235  0.039573499057833625  1.0000
  H   H17       1.0  0.9035638650698213  0.19076720650613704  0.7981870901285283  1.0000
  H   H18       1.0  0.09643613481422128  0.8092327939407598  0.20181290998768184  1.0000
  C   C1        1.0  0.7017856894183104  0.5970691262520043  0.3849457026798611  1.0000
  C   C2        1.0  0.29821431058582676  0.4029308730169633  0.6150542974368943  1.0000
  C   C3        1.0  0.39365117408778205  0.5457428661749989  0.1937538650189548  1.0000
  C   C4        1.0  0.6063488257962608  0.45425713427189807  0.8062461350972554  1.0000
  C   C5        1.0  0.48896252457245715  0.6993750855104451  0.3420926993733344  1.0000
  C   C6        1.0  0.51103747543168  0.30062491375852235  0.6579073007434211  1.0000
  C   C7        1.0  0.7429135508648308  0.4623749345696041  0.32237138418153394  1.0000
  C   C8        1.0  0.2570864491393064  0.5376250646993636  0.6776286159352215  1.0000
  C   C9        1.0  0.9802764052476869  0.21570474232089978  0.30100253397907817  1.0000
  C   C10       1.0  0.01972359475645045  0.7842952569480678  0.6989974661376773  1.0000
  C   C11       1.0  0.41677094267905823  0.9884770846711681  0.9449290727447617  1.0000
  C   C12       1.0  0.5832290572049845  0.011522915775728747  0.055070927371448405  1.0000
  C   C13       1.0  0.20434565445226652  0.12109804370829345  0.9129345558406576  1.0000
  C   C14       1.0  0.7956543455518708  0.8789019555606741  0.08706544427609789  1.0000
  N   N1        1.0  0.5929520330525588  0.4353159268771035  0.22973254045515681  1.0000
  N   N2        1.0  0.4070479668314839  0.5646840735697936  0.7702674596610533  1.0000
  N   N3        1.0  0.24628723042279865  0.523268737802949  0.09749709420701119  1.0000
  N   N4        1.0  0.7537127695813386  0.4767312614660185  0.9025029059097442  1.0000
  N   N5        1.0  0.3327508416535838  0.6796447457970257  0.24802100862359902  1.0000
  N   N6        1.0  0.667249158230459  0.3203552546498711  0.751978991492611  1.0000
  O   O1        1.0  0.9463374663872953  0.3577503290666823  0.36100560399157056  1.0000
  O   O2        1.0  0.053662533496747516  0.6422496713802146  0.6389943961246396  1.0000
  O   O3        1.0  0.0465071364703123  0.09594573453223695  0.8227922879409475  1.0000
  O   O4        1.0  0.9534928635338249  0.9040542647367306  0.17720771217580802  1.0000
  O   O5        1.0  0.18058507799372225  0.24163731668877245  0.9661532916503781  1.0000
  O   O6        1.0  0.8194149218903204  0.7583626837581244  0.03384670846583196  1.0000
  Cl  Cl1       1.0  0.4126400961064351  0.8676553553249183  0.4125558024118914  1.0000
  Cl  Cl2       1.0  0.5873599037776077  0.13234464512197855  0.5874441977043188  1.0000
