data_image0
_chemical_formula_structural       C8N2F12P2
_chemical_formula_sum              "C8 N2 F12 P2"
_cell_length_a       7.219214358554506
_cell_length_b       7.219214358554507
_cell_length_c       6.408450300849878
_cell_angle_alpha    90.0
_cell_angle_beta     90.0
_cell_angle_gamma    90.0

_space_group_name_H-M_alt    "P 1"
_space_group_IT_number       1

loop_
  _space_group_symop_operation_xyz
  'x, y, z'

loop_
  _atom_site_type_symbol
  _atom_site_label
  _atom_site_symmetry_multiplicity
  _atom_site_fract_x
  _atom_site_fract_y
  _atom_site_fract_z
  _atom_site_occupancy
  C   C1        1.0  0.5871238516387098  0.25001048595561975  0.8691731882919198  1.0000
  C   C2        1.0  0.24998951414449455  0.5871238516387098  0.8691731882919198  1.0000
  C   C3        1.0  0.08712385153859553  0.7499895142446089  0.13082681157546205  1.0000
  C   C4        1.0  0.912876148661633  0.24998951414449455  0.8691731882919198  1.0000
  C   C5        1.0  0.7500104860557341  0.08712385153859553  0.13082681157546205  1.0000
  C   C6        1.0  0.25001048595561975  0.912876148661633  0.8691731882919198  1.0000
  C   C7        1.0  0.4128761485615188  0.7500104860557341  0.13082681157546205  1.0000
  C   C8        1.0  0.7499895142446089  0.4128761485615188  0.13082681157546205  1.0000
  N   N1        1.0  0.7500000001501714  0.2500000000500571  0.0  1.0000
  N   N2        1.0  0.2500000000500571  0.7500000001501714  0.0  1.0000
  F   F1        1.0  0.2500000000500571  0.2500000000500571  0.5505939009204865  1.0000
  F   F2        1.0  0.7500000001501714  0.7500000001501714  0.4494061005073348  1.0000
  F   F3        1.0  0.2500000000500571  0.2500000000500571  0.043173245794433025  1.0000
  F   F4        1.0  0.7500000001501714  0.7500000001501714  0.9568267540729487  1.0000
  F   F5        1.0  0.08862723119474043  0.41094828504219993  0.2952078585596754  1.0000
  F   F6        1.0  0.08905171505791437  0.08862723119474043  0.2952078585596754  1.0000
  F   F7        1.0  0.5886272312948547  0.5890517151580287  0.7047921413077063  1.0000
  F   F8        1.0  0.4113727689053739  0.08905171505791437  0.2952078585596754  1.0000
  F   F9        1.0  0.9109482851423143  0.5886272312948547  0.7047921413077063  1.0000
  F   F10       1.0  0.41094828504219993  0.4113727689053739  0.2952078585596754  1.0000
  F   F11       1.0  0.9113727690054882  0.9109482851423143  0.7047921413077063  1.0000
  F   F12       1.0  0.5890517151580287  0.9113727690054882  0.7047921413077063  1.0000
  P   P1        1.0  0.2500000000500571  0.2500000000500571  0.30124017030201244  1.0000
  P   P2        1.0  0.7500000001501714  0.7500000001501714  0.6987598295653693  1.0000
