data_image0
_chemical_formula_structural       H50C48N10O2S2Cl4
_chemical_formula_sum              "H50 C48 N10 O2 S2 Cl4"
_cell_length_a       7.089316870695018
_cell_length_b       13.036100954322473
_cell_length_c       13.225693818944453
_cell_angle_alpha    77.79037682001638
_cell_angle_beta     75.00345152348642
_cell_angle_gamma    87.29500271187995

_space_group_name_H-M_alt    "P 1"
_space_group_IT_number       1

loop_
  _space_group_symop_operation_xyz
  'x, y, z'

loop_
  _atom_site_type_symbol
  _atom_site_label
  _atom_site_symmetry_multiplicity
  _atom_site_fract_x
  _atom_site_fract_y
  _atom_site_fract_z
  _atom_site_occupancy
  H   H1        1.0  0.967323584951225  0.19464168886161057  0.5780465951546203  1.0000
  H   H2        1.0  0.032676414094006304  0.8053583117026345  0.42195340461168224  1.0000
  H   H3        1.0  0.8102060431710053  0.35470948216181936  0.6274953587322504  1.0000
  H   H4        1.0  0.18979395735753624  0.6452905176379942  0.37250464103445574  1.0000
  H   H5        1.0  0.5653859495153758  0.09093272191545385  0.12157126430797009  1.0000
  H   H6        1.0  0.4346140510131659  0.9090672778843597  0.8784287354587361  1.0000
  H   H7        1.0  0.17785195403872034  0.15328379791137875  0.42760567914642417  1.0000
  H   H8        1.0  0.8221480464898212  0.846716201888435  0.572394320620282  1.0000
  H   H9        1.0  0.35799412963657784  0.9833025489256368  0.44025339286195075  1.0000
  H   H10       1.0  0.6420058708919636  0.016697450874176924  0.5597466069047554  1.0000
  H   H11       1.0  0.3021836307633885  0.8597308560294316  0.6219082740786503  1.0000
  H   H12       1.0  0.697816369765153  0.1402691437703822  0.37809172568805577  1.0000
  H   H13       1.0  0.07203403385543937  0.9107962065590678  0.7789385694857681  1.0000
  H   H14       1.0  0.927965966673102  0.08920379324074583  0.22106143028093803  1.0000
  H   H15       1.0  0.8632485700110571  0.9649852125229864  0.9032877302100736  1.0000
  H   H16       1.0  0.13675142903417406  0.03501478804125847  0.09671226955622908  1.0000
  H   H17       1.0  0.5786192455299479  0.2445263388873831  0.9906667316035389  1.0000
  H   H18       1.0  0.4213807549247911  0.7554736616801391  0.009333268164343596  1.0000
  H   H19       1.0  0.5417390309457003  0.4022167314403163  0.9380312027648783  1.0000
  H   H20       1.0  0.45826096958284107  0.5977832683594974  0.061968797001827836  1.0000
  H   H21       1.0  0.4993651868614227  0.5902258271529299  0.8608863128539467  1.0000
  H   H22       1.0  0.5006348135933163  0.40977417341459227  0.139113686913936  1.0000
  H   H23       1.0  0.6481347244487481  0.6603197959240609  0.6663043203703369  1.0000
  H   H24       1.0  0.35186527607979334  0.3396802038757529  0.3336956793963692  1.0000
  H   H25       1.0  0.8054791264577921  0.5292420313238453  0.5513704702142591  1.0000
  H   H26       1.0  0.1945208736959432  0.47075796831272854  0.44862953035245706  1.0000
  H   H27       1.0  0.5329862136315898  0.9544536295681418  0.2531560852896938  1.0000
  H   H28       1.0  0.46701378689695167  0.04554637023167177  0.7468439144770124  1.0000
  H   H29       1.0  0.87550860226774  0.7734555461835029  0.10196153164036992  1.0000
  H   H30       1.0  0.12449139640268501  0.22654445421750238  0.8980384689259429  1.0000
  H   H31       1.0  0.9380693917466987  0.5888197260589005  0.18030817979130442  1.0000
  H   H32       1.0  0.061930608407036535  0.41118027357767334  0.8196918207754117  1.0000
  H   H33       1.0  0.7759682573622458  0.511762379705805  0.37231812612512066  1.0000
  H   H34       1.0  0.22403174130817927  0.4882376206952001  0.6276818744411921  1.0000
  H   H35       1.0  0.5429855188888674  0.6228046239879818  0.4809155472377195  1.0000
  H   H36       1.0  0.4570144811910655  0.37719537641630063  0.5190844533301732  1.0000
  H   H37       1.0  0.47777422709202505  0.8038515415474391  0.4009282720000981  1.0000
  H   H38       1.0  0.5222257734365165  0.19614845825237445  0.599071727766608  1.0000
  H   H39       1.0  0.3007528252216187  0.7050552805372476  0.7416595136574197  1.0000
  H   H40       1.0  0.6992471752331203  0.2949447200302745  0.25834048611046306  1.0000
  H   H41       1.0  0.051629006788853495  0.7142568514576481  0.7308888307691223  1.0000
  H   H42       1.0  0.9483709932910794  0.28574314894663433  0.2691111697987704  1.0000
  H   H43       1.0  0.1472206448159526  0.5892914716200599  0.7810950975133938  1.0000
  H   H44       1.0  0.8527793542292786  0.4107085289441852  0.21890490225290887  1.0000
  H   H45       1.0  0.7715272550666883  0.6536499672066297  0.027931344096726977  1.0000
  H   H46       1.0  0.22847274508704693  0.3463500324299441  0.9720686564699892  1.0000
  H   H47       1.0  0.8453098778628586  0.5613484716111595  0.9423183406495946  1.0000
  H   H48       1.0  0.15469012118237255  0.43865152895308546  0.05768165911670803  1.0000
  H   H49       1.0  0.7580520487282105  0.691600041737206  0.8908467600292864  1.0000
  H   H50       1.0  0.24194795180033113  0.3083999580626075  0.10915323973741972  1.0000
  C   C1        1.0  0.16075017582847353  0.09627733071468036  0.5029209590340574  1.0000
  C   C2        1.0  0.8392498229157541  0.9037226689186163  0.4970790415310788  1.0000
  C   C3        1.0  0.25851421693878873  0.0016539940068344792  0.5117611562995658  1.0000
  C   C4        1.0  0.7414857835897527  0.9983460057929792  0.48823884346714036  1.0000
  C   C5        1.0  0.2254339830330818  0.9339983267467937  0.6120096115483169  1.0000
  C   C6        1.0  0.774566017046851  0.06600167365748874  0.3879903890195758  1.0000
  C   C7        1.0  0.09607750730058949  0.9624109862287507  0.7005057545505983  1.0000
  C   C8        1.0  0.9039224917446417  0.03758901433549419  0.2994942452157045  1.0000
  C   C9        1.0  0.0013948539104763037  0.05889658578672066  0.6888659272969974  1.0000
  C   C10       1.0  0.9986051466180651  0.9411034140130929  0.3111340724697089  1.0000
  C   C11       1.0  0.8726944678812305  0.10301536378835299  0.7761067698350197  1.0000
  C   C12       1.0  0.12730553227250477  0.8969846358482209  0.2238932307316965  1.0000
  C   C13       1.0  0.8210476364966031  0.04619048828669754  0.8813005161584486  1.0000
  C   C14       1.0  0.1789523626224306  0.9538095115098388  0.11869948360667744  1.0000
  C   C15       1.0  0.7099571487062164  0.09727095174083145  0.9609317845409303  1.0000
  C   C16       1.0  0.2900428504128173  0.9027290480557049  0.03906821522419598  1.0000
  C   C17       1.0  0.6585096469276263  0.20281343868274399  0.9299303501206178  1.0000
  C   C18       1.0  0.3414903536009153  0.7971865611170695  0.07006964964608833  1.0000
  C   C19       1.0  0.7184977697185162  0.25177917472119954  0.8225602500958914  1.0000
  C   C20       1.0  0.2815022308100252  0.7482208250786142  0.1774397496708148  1.0000
  C   C21       1.0  0.6818399975581966  0.3640256072155112  0.7863580144856165  1.0000
  C   C22       1.0  0.31816000297034497  0.6359743925843024  0.21364198528108963  1.0000
  C   C23       1.0  0.5917048052148948  0.43183991687461887  0.8525435319785994  1.0000
  C   C24       1.0  0.4082951949388405  0.5681600827619551  0.1474564685881168  1.0000
  C   C25       1.0  0.5743209561100268  0.537862771359237  0.809318464507772  1.0000
  C   C26       1.0  0.4256790426342007  0.4621372282740596  0.19068153605736424  1.0000
  C   C27       1.0  0.6524128814172232  0.5768306346550034  0.7003095835365654  1.0000
  C   C28       1.0  0.34758711903751577  0.42316936591251886  0.2996904162313173  1.0000
  C   C29       1.0  0.7397314770797943  0.5070109103765937  0.6368483214268678  1.0000
  C   C30       1.0  0.2602685220392393  0.4929890894199427  0.3631516783382584  1.0000
  C   C31       1.0  0.6304338239127582  0.9087746653514607  0.20021656502622265  1.0000
  C   C32       1.0  0.3695661765419809  0.09122533521606142  0.7997834347416599  1.0000
  C   C33       1.0  0.6740265948068688  0.8016670170593634  0.24550360191104695  1.0000
  C   C34       1.0  0.32597340564787014  0.1983329835081588  0.7544963978568356  1.0000
  C   C35       1.0  0.8024782214352626  0.7387319506747589  0.18458758034775946  1.0000
  C   C36       1.0  0.19752177871847273  0.2612680489618148  0.8154124202189568  1.0000
  C   C37       1.0  0.837413717061083  0.6355531043528738  0.22964899028064312  1.0000
  C   C38       1.0  0.16258628309265222  0.36444689528370006  0.770351010286073  1.0000
  C   C39       1.0  0.7470787509535581  0.5928031023477638  0.33703301453206036  1.0000
  C   C40       1.0  0.2529212495749833  0.40719689745204996  0.6629669852346458  1.0000
  C   C41       1.0  0.6199951174597519  0.6549415258642839  0.3982064632809118  1.0000
  C   C42       1.0  0.38000488306878943  0.34505847393552974  0.6017935364857944  1.0000
  C   C43       1.0  0.5833283352644844  0.7581308899537456  0.35294838553178226  1.0000
  C   C44       1.0  0.4166716638545492  0.24186910984279086  0.647051614233344  1.0000
  C   C45       1.0  0.1517878981071321  0.6740406793987394  0.7768976559246551  1.0000
  C   C46       1.0  0.8482121020466031  0.32595932023783447  0.22310234464206116  1.0000
  C   C47       1.0  0.83798574977776  0.6449106217583158  0.9457915000188478  1.0000
  C   C48       1.0  0.16201425075078132  0.35508937804149787  0.054208499747858435  1.0000
  N   N1        1.0  0.03793991248088913  0.1213138843921073  0.5899201495191132  1.0000
  N   N2        1.0  0.9620600865643423  0.8786861161721377  0.4100798502471894  1.0000
  N   N3        1.0  0.8213201680211151  0.20319434984911267  0.7458422393230861  1.0000
  N   N4        1.0  0.17867983072311244  0.7968056497841841  0.25415776124205014  1.0000
  N   N5        1.0  0.7492937115603584  0.40474630560425195  0.6805083426257458  1.0000
  N   N6        1.0  0.250706287484873  0.595253694959993  0.3194916571405568  1.0000
  N   N7        1.0  0.6512500532881391  0.04948141420925709  0.06623940716111726  1.0000
  N   N8        1.0  0.34874994724040226  0.9505185855905565  0.933760592605589  1.0000
  N   N9        1.0  0.7016696396560901  0.9494977241677972  0.09966580514797964  1.0000
  N   N10       1.0  0.29833035946294356  0.05050227562873919  0.9003341946171466  1.0000
  O   O1        1.0  0.19678382947071238  0.6234352532916642  0.97538418206215  1.0000
  O   O2        1.0  0.8032161696483212  0.3765647465048722  0.024615817702976207  1.0000
  S   S1        1.0  0.0812660949043856  0.6980524008481416  0.910444192371272  1.0000
  S   S2        1.0  0.9187339041408455  0.30194759971610324  0.08955580739503062  1.0000
  Cl  Cl1       1.0  0.8924559042504405  0.3218968843796558  0.475315369461774  1.0000
  Cl  Cl2       1.0  0.1075440948685933  0.6781031154168805  0.5246846303033522  1.0000
  Cl  Cl3       1.0  0.4020995978343368  0.16810207085235535  0.23891933541369598  1.0000
  Cl  Cl4       1.0  0.5979004026942045  0.8318979289474583  0.7610806643530102  1.0000
