data_image0
_chemical_formula_structural       H40C28N2O10
_chemical_formula_sum              "H40 C28 N2 O10"
_cell_length_a       8.53522084788138
_cell_length_b       8.953803063024633
_cell_length_c       9.618956199856953
_cell_angle_alpha    74.1780532766824
_cell_angle_beta     88.54643796439012
_cell_angle_gamma    79.1372071143579

_space_group_name_H-M_alt    "P 1"
_space_group_IT_number       1

loop_
  _space_group_symop_operation_xyz
  'x, y, z'

loop_
  _atom_site_type_symbol
  _atom_site_label
  _atom_site_symmetry_multiplicity
  _atom_site_fract_x
  _atom_site_fract_y
  _atom_site_fract_z
  _atom_site_occupancy
  H   H1        1.0  0.11375839942612803  0.01613855331522992  0.8515224225372217  1.0000
  H   H2        1.0  0.8862415999357175  0.983861447304229  0.14847757772191073  1.0000
  H   H3        1.0  0.2565832387757541  0.45116464016611796  0.07635038669926328  1.0000
  H   H4        1.0  0.7434167608122471  0.5488353592712713  0.9236496138559847  1.0000
  H   H5        1.0  0.2388171637817381  0.5527500468259842  0.8962645422354935  1.0000
  H   H6        1.0  0.7611828358062631  0.4472499526114051  0.10373545831975467  1.0000
  H   H7        1.0  0.29867190904684543  0.320727152186618  0.8225212278327593  1.0000
  H   H8        1.0  0.7013280903196611  0.6792728484314768  0.1774787713870085  1.0000
  H   H9        1.0  0.45234148989065903  0.3451792787427269  0.9308014649824198  1.0000
  H   H10       1.0  0.5476585097020031  0.6548207206932982  0.06919853453346379  1.0000
  H   H11       1.0  0.4942169997740416  0.18293876394365094  0.18779627814176292  1.0000
  H   H12       1.0  0.5057829998139594  0.8170612354937384  0.8122037224134852  1.0000
  H   H13       1.0  0.49583297527281134  0.9155595680622193  0.35726433435298616  1.0000
  H   H14       1.0  0.5041670240936953  0.08444043255587554  0.6427356648667816  1.0000
  H   H15       1.0  0.336184673777133  0.7377704736005466  0.2942097176646583  1.0000
  H   H16       1.0  0.6638153269826802  0.2622295258377471  0.7057902828678871  1.0000
  H   H17       1.0  0.17245389233482006  0.825326956762917  0.06703103717163084  1.0000
  H   H18       1.0  0.8275461084296541  0.17467304267401249  0.9329689623215499  1.0000
  H   H19       1.0  0.03886705047851037  0.3174237338102324  0.047251817341764306  1.0000
  H   H20       1.0  0.9611329488879964  0.6825762668078627  0.9527481818780034  1.0000
  H   H21       1.0  0.016001138039604814  0.4367858227719252  0.8649374070938038  1.0000
  H   H22       1.0  0.9839988615483963  0.5632141766654641  0.13506259346144436  1.0000
  H   H23       1.0  0.269746057499404  0.49710490658159784  0.5551605959267393  1.0000
  H   H24       1.0  0.7302539420932581  0.5028950928544271  0.4448394035891442  1.0000
  H   H25       1.0  0.23649334940755964  0.30656255793295906  0.5675972120564918  1.0000
  H   H26       1.0  0.763506649958947  0.6934374426851359  0.4324027871632759  1.0000
  H   H27       1.0  0.01664969664933405  0.4218544122229236  0.3752910495567948  1.0000
  H   H28       1.0  0.9833503041104791  0.5781455872153701  0.6247089509757507  1.0000
  H   H29       1.0  0.050758020393741686  0.6131435793274304  0.36262113948915536  1.0000
  H   H30       1.0  0.949241978968104  0.3868564212920289  0.637378860769977  1.0000
  H   H31       1.0  0.5792285039743762  0.3430788157048793  0.3484001792691414  1.0000
  H   H32       1.0  0.420771495613625  0.65692118373251  0.6515998212861067  1.0000
  H   H33       1.0  0.27212087255575335  0.8787450752181516  0.5066605644585324  1.0000
  H   H34       1.0  0.7278791279825653  0.1212549254008478  0.49333943473853287  1.0000
  H   H35       1.0  0.29765674601189224  0.008498584353803847  0.6098608710796806  1.0000
  H   H36       1.0  0.7023432533499534  0.9915014162656552  0.3901391291794517  1.0000
  H   H37       1.0  0.0004926401255957283  0.10347407149829105  0.603477572691052  1.0000
  H   H38       1.0  0.9995073592409108  0.8965259291198039  0.3965224265287159  1.0000
  H   H39       1.0  0.08383956538025912  0.13815620588115193  0.4289383177078519  1.0000
  H   H40       1.0  0.9161604339862475  0.861843794736943  0.5710616815119157  1.0000
  C   C1        1.0  0.3332859436246715  0.31545409543284975  0.9328751987033758  1.0000
  C   C2        1.0  0.6667140559633296  0.6845459040045395  0.06712480185187228  1.0000
  C   C3        1.0  0.3312338346683485  0.15590298228747348  0.03406609379194305  1.0000
  C   C4        1.0  0.6687661649196527  0.8440970171499158  0.9659339067633049  1.0000
  C   C5        1.0  0.4227052653063103  0.10421629760284325  0.16285232498234734  1.0000
  C   C6        1.0  0.5772947352320084  0.8957837030161562  0.8371476742147178  1.0000
  C   C7        1.0  0.42477565024980035  0.9551406860010313  0.25710509515831975  1.0000
  C   C8        1.0  0.5752243493428618  0.044859313434993546  0.7428949043575637  1.0000
  C   C9        1.0  0.3344387871098683  0.8551586435178496  0.2216608012590525  1.0000
  C   C10       1.0  0.6655612134284503  0.1448413571011497  0.7783391979380128  1.0000
  C   C11       1.0  0.24326771381530174  0.903247062920498  0.09395110966968656  1.0000
  C   C12       1.0  0.7567322869491724  0.09675293651643166  0.9060488898234943  1.0000
  C   C13       1.0  0.24044149034216283  0.0542055581401006  0.9991166487077825  1.0000
  C   C14       1.0  0.7595585090196828  0.9457944424793585  0.0008833515513496625  1.0000
  C   C15       1.0  0.05081608354774728  0.43285773435626784  0.9751502378122562  1.0000
  C   C16       1.0  0.9491839169859103  0.5671422662640958  0.02484976242417359  1.0000
  C   C17       1.0  0.3469257815243629  0.4142807878152636  0.3752649125259732  1.0000
  C   C18       1.0  0.6530742180636383  0.5857192116221256  0.624735088029275  1.0000
  C   C19       1.0  0.22774596603615396  0.42545007531051143  0.4922486871478748  1.0000
  C   C20       1.0  0.7722540333256916  0.5745499253089478  0.5077513131112574  1.0000
  C   C21       1.0  0.056560728705056865  0.4948026960945817  0.4379566226607145  1.0000
  C   C22       1.0  0.9434392718332617  0.5051973045244177  0.5620433765363506  1.0000
  C   C23       1.0  0.19623692021650468  0.8144980856182867  0.7259165557357657  1.0000
  C   C24       1.0  0.8037630791453408  0.18550191500117233  0.27408344452336636  1.0000
  C   C25       1.0  0.2147142079925402  0.9376661568888514  0.5858433229563179  1.0000
  C   C26       1.0  0.7852857916001219  0.062333842547173654  0.4141566765595656  1.0000
  C   C27       1.0  0.05753871849870748  0.045140199950664164  0.5231463758667309  1.0000
  C   C28       1.0  0.9424612810892937  0.9548597994867248  0.4768536246885171  1.0000
  N   N1        1.0  0.22163780062573946  0.44723042434284455  0.9745281197071797  1.0000
  N   N2        1.0  0.7783622001340736  0.5527695750954491  0.025471880825365795  1.0000
  O   O1        1.0  0.1520994220010906  0.10711851359280686  0.8736012981565833  1.0000
  O   O2        1.0  0.8479005787587226  0.8928814858454869  0.12639870237596207  1.0000
  O   O3        1.0  0.4928981506062259  0.34997143903668876  0.4279208969250904  1.0000
  O   O4        1.0  0.5071018501535872  0.650028560401605  0.5720791036074552  1.0000
  O   O5        1.0  0.3119335430218722  0.4629659961210473  0.2442078205853618  1.0000
  O   O6        1.0  0.6880664575164465  0.5370340044979521  0.7557921786117033  1.0000
  O   O7        1.0  0.28536981970595837  0.67547248662734  0.7467541505928904  1.0000
  O   O8        1.0  0.7146301808276994  0.3245275139930236  0.2532458496435393  1.0000
  O   O9        1.0  0.09891240777155436  0.8484852137470931  0.8179557020781052  1.0000
  O   O10       1.0  0.9010875929882588  0.15151478569120053  0.1820442984544402  1.0000
