data_image0
_chemical_formula_structural       H36C12N10Br6
_chemical_formula_sum              "H36 C12 N10 Br6"
_cell_length_a       13.35398505023005
_cell_length_b       6.714502018741213
_cell_length_c       6.753676667046153
_cell_angle_alpha    90.0
_cell_angle_beta     90.0
_cell_angle_gamma    90.0

_space_group_name_H-M_alt    "P 1"
_space_group_IT_number       1

loop_
  _space_group_symop_operation_xyz
  'x, y, z'

loop_
  _atom_site_type_symbol
  _atom_site_label
  _atom_site_symmetry_multiplicity
  _atom_site_fract_x
  _atom_site_fract_y
  _atom_site_fract_z
  _atom_site_occupancy
  H   H1        1.0  0.11080542882399808  0.286577125843316  0.3171799429564491  1.0000
  H   H2        1.0  0.8891945711587749  0.7134228743441569  0.3171799429564491  1.0000
  H   H3        1.0  0.3891945707929683  0.286577125843316  0.3171799429564491  1.0000
  H   H4        1.0  0.6108054291898046  0.7134228743441569  0.3171799429564491  1.0000
  H   H5        1.0  0.9514943833025415  0.59434405691759  0.8756529415830837  1.0000
  H   H6        1.0  0.04850561668023144  0.40565594326988297  0.8756529415830837  1.0000
  H   H7        1.0  0.548505617046038  0.59434405691759  0.8756529415830837  1.0000
  H   H8        1.0  0.451494382936735  0.40565594326988297  0.8756529415830837  1.0000
  H   H9        1.0  0.17352488948308958  0.40909754920514074  0.6283576530553798  1.0000
  H   H10       1.0  0.8264751104996834  0.5909024494930185  0.6283576530553798  1.0000
  H   H11       1.0  0.3264751108827169  0.40909754920514074  0.6283576530553798  1.0000
  H   H12       1.0  0.673524889100056  0.5909024494930185  0.6283576530553798  1.0000
  H   H13       1.0  0.17350914362152026  0.6018263065110481  0.4391985634244651  1.0000
  H   H14       1.0  0.8264908563612527  0.39817369218711113  0.4391985634244651  1.0000
  H   H15       1.0  0.3264908567442863  0.6018263065110481  0.4391985634244651  1.0000
  H   H16       1.0  0.6735091432384867  0.39817369218711113  0.4391985634244651  1.0000
  H   H17       1.0  0.04760349945045422  0.5966710008899635  0.18234773749372093  1.0000
  H   H18       1.0  0.9523965005323187  0.4033289992975094  0.18234773749372093  1.0000
  H   H19       1.0  0.45239650091535233  0.5966710008899635  0.18234773749372093  1.0000
  H   H20       1.0  0.5476034990674207  0.4033289992975094  0.18234773749372093  1.0000
  H   H21       1.0  0.048089636732739714  0.8485329685057005  0.43930048124403714  1.0000
  H   H22       1.0  0.9519103632500333  0.15146703168177242  0.43930048124403714  1.0000
  H   H23       1.0  0.4519103628842267  0.8485329685057005  0.43930048124403714  1.0000
  H   H24       1.0  0.5480896370985462  0.15146703168177242  0.43930048124403714  1.0000
  H   H25       1.0  0.9512224524904026  0.8454353865939  0.6282039219765636  1.0000
  H   H26       1.0  0.04877754749237036  0.1545646135935728  0.6282039219765636  1.0000
  H   H27       1.0  0.5487775471093368  0.8454353865939  0.6282039219765636  1.0000
  H   H28       1.0  0.4512224528734362  0.1545646135935728  0.6282039219765636  1.0000
  H   H29       1.0  0.18606260907542324  0.9889525584273904  0.023689831167173145  1.0000
  H   H30       1.0  0.8139373909073497  0.01104744176008251  0.023689831167173145  1.0000
  H   H31       1.0  0.3139373905415432  0.9889525584273904  0.023689831167173145  1.0000
  H   H32       1.0  0.6860626094412298  0.01104744176008251  0.023689831167173145  1.0000
  H   H33       1.0  0.2499999998084832  0.9569038034490811  0.8089288056470509  1.0000
  H   H34       1.0  0.7500000001742897  0.04309619524907805  0.8089288056470509  1.0000
  H   H35       1.0  0.2499999998084832  0.7745496114952384  0.9858084312040255  1.0000
  H   H36       1.0  0.7500000001742897  0.22545038869223452  0.9858084312040255  1.0000
  C   C1        1.0  0.0  0.5000000000937365  0.7837209228310588  1.0000
  C   C2        1.0  0.5000000003658065  0.5000000000937365  0.7837209228310588  1.0000
  C   C3        1.0  0.1278009623030542  0.5091120548416879  0.5376245249815995  1.0000
  C   C4        1.0  0.8721990376797187  0.49088794534578506  0.5376245249815995  1.0000
  C   C5        1.0  0.3721990380627523  0.5091120548416879  0.5376245249815995  1.0000
  C   C6        1.0  0.6278009619200206  0.49088794534578506  0.5376245249815995  1.0000
  C   C7        1.0  0.0  0.5000000000937365  0.2735453710738585  1.0000
  C   C8        1.0  0.5000000003658065  0.5000000000937365  0.2735453710738585  1.0000
  C   C9        1.0  0.002248781909448271  0.7556657628276687  0.537705209922094  1.0000
  C   C10       1.0  0.9977512180733247  0.2443342373598042  0.537705209922094  1.0000
  C   C11       1.0  0.4977512184563583  0.7556657628276687  0.537705209922094  1.0000
  C   C12       1.0  0.5022487815264147  0.2443342373598042  0.537705209922094  1.0000
  N   N1        1.0  0.06319797250225777  0.6284258189546356  0.6588166326810613  1.0000
  N   N2        1.0  0.9368020274805151  0.37157418123283736  0.6588166326810613  1.0000
  N   N3        1.0  0.4368020278635488  0.6284258189546356  0.6588166326810613  1.0000
  N   N4        1.0  0.5631979721192242  0.37157418123283736  0.6588166326810613  1.0000
  N   N5        1.0  0.06391438037331759  0.3746574970084846  0.4043936472893833  1.0000
  N   N6        1.0  0.9360856196094554  0.6253425031789882  0.4043936472893833  1.0000
  N   N7        1.0  0.43608561999248896  0.3746574970084846  0.4043936472893833  1.0000
  N   N8        1.0  0.563914379990284  0.6253425031789882  0.4043936472893833  1.0000
  N   N9        1.0  0.2499999998084832  0.9284277303961095  0.9611113368326197  1.0000
  N   N10       1.0  0.7500000001742897  0.07157226979136336  0.9611113368326197  1.0000
  Br  Br1       1.0  0.2499999998084832  0.4416329970150075  0.056953107020480266  1.0000
  Br  Br2       1.0  0.7500000001742897  0.5583670031724653  0.056953107020480266  1.0000
  Br  Br3       1.0  0.0  0.0  0.06137276189463861  1.0000
  Br  Br4       1.0  0.5000000003658065  0.0  0.06137276189463861  1.0000
  Br  Br5       1.0  0.2499999998084832  0.023086599656583485  0.476317091947336  1.0000
  Br  Br6       1.0  0.7500000001742897  0.9769134005308894  0.476317091947336  1.0000
