data_image0
_chemical_formula_structural       H16C24N6F4I2
_chemical_formula_sum              "H16 C24 N6 F4 I2"
_cell_length_a       5.082845258038548
_cell_length_b       9.80167519808817
_cell_length_c       12.570103403710059
_cell_angle_alpha    77.2457977842209
_cell_angle_beta     87.3505879481841
_cell_angle_gamma    75.75382002825147

_space_group_name_H-M_alt    "P 1"
_space_group_IT_number       1

loop_
  _space_group_symop_operation_xyz
  'x, y, z'

loop_
  _atom_site_type_symbol
  _atom_site_label
  _atom_site_symmetry_multiplicity
  _atom_site_fract_x
  _atom_site_fract_y
  _atom_site_fract_z
  _atom_site_occupancy
  H   H1        1.0  0.3938668805539222  0.5889907244885642  0.3823487525842135  1.0000
  H   H2        1.0  0.6061331184407267  0.4110092758954188  0.6176512473796746  1.0000
  H   H3        1.0  0.002401059838117099  0.7566536417836685  0.2735173906074987  1.0000
  H   H4        1.0  0.9975989396552171  0.24334635754796882  0.7264826093554875  1.0000
  H   H5        1.0  0.22508731655151995  0.5146169571378435  0.02096972052517102  1.0000
  H   H6        1.0  0.7749126844107862  0.48538304324491977  0.9790302794414507  1.0000
  H   H7        1.0  0.6114008372257769  0.3575166673629487  0.14039164087741104  1.0000
  H   H8        1.0  0.38859916226755725  0.6424833319686888  0.8596083590855751  1.0000
  H   H9        1.0  0.8989735324586531  0.7481092693406773  0.9797975569451012  1.0000
  H   H10       1.0  0.10102646850365307  0.2518907310420859  0.020202443021520543  1.0000
  H   H11       1.0  0.6633858615827972  0.7017585015982564  0.08233149762587255  1.0000
  H   H12       1.0  0.3366141374118518  0.2982414987857266  0.9176685023380154  1.0000
  H   H13       1.0  0.4536511739957277  0.15270546302330745  0.19701879073526446  1.0000
  H   H14       1.0  0.5463488255089661  0.8472945360740055  0.8029812100434107  1.0000
  H   H15       1.0  0.45318809653285214  0.869736761074749  0.19845483556356722  1.0000
  H   H16       1.0  0.5468119029604821  0.13026323825688849  0.8015451643994189  1.0000
  C   C1        1.0  0.27408282797002903  0.10896449582488178  0.44988078697576145  1.0000
  C   C2        1.0  0.7259171710359796  0.891035504324777  0.5501192138038155  1.0000
  C   C3        1.0  0.4273979535726672  0.1304349467428134  0.5309160358828588  1.0000
  C   C4        1.0  0.5726020478883241  0.8695650525876041  0.46908396408286085  1.0000
  C   C5        1.0  0.34986961020301666  0.9756827009352969  0.42078588234029657  1.0000
  C   C6        1.0  0.6501303912579746  0.024317298395120673  0.5792141176254233  1.0000
  C   C7        1.0  0.34981867454725685  0.5758497212468134  0.30168915678067965  1.0000
  C   C8        1.0  0.6501813264150492  0.4241502791359498  0.698310843185942  1.0000
  C   C9        1.0  0.1297667239332465  0.6691070704745248  0.24049293618686998  1.0000
  C   C10       1.0  0.8702332770290596  0.3308929299082384  0.7595070637797517  1.0000
  C   C11       1.0  0.07893328784712528  0.6487928217463138  0.13738853233487303  1.0000
  C   C12       1.0  0.9210667111475236  0.35120717863766926  0.862611467629015  1.0000
  C   C13       1.0  0.2531425572495726  0.5339211790432731  0.10124105467285388  1.0000
  C   C14       1.0  0.7468574442227783  0.4660788200528202  0.8987589461085549  1.0000
  C   C15       1.0  0.4695211405337432  0.4467733419277299  0.16706479866661628  1.0000
  C   C16       1.0  0.5304788584609057  0.5532266584562531  0.8329352012972717  1.0000
  C   C17       1.0  0.8454093052196746  0.7447213518974836  0.06563287422682794  1.0000
  C   C18       1.0  0.15459069574263162  0.2552786484852796  0.9343671257397936  1.0000
  C   C19       1.0  0.8916341186612464  0.004038261839871486  0.03953558992232613  1.0000
  C   C20       1.0  0.10836588083208774  0.9959617374917659  0.9604644100406602  1.0000
  C   C21       1.0  0.5803433799689391  0.07928896274609891  0.15161907269642827  1.0000
  C   C22       1.0  0.4196566209933671  0.9207110376366643  0.8483809272701934  1.0000
  C   C23       1.0  0.576205959721825  0.9388022747977929  0.1541135371934727  1.0000
  C   C24       1.0  0.4237940417391664  0.0611977245326247  0.8458864627722471  1.0000
  N   N1        1.0  0.5190149433860685  0.4678263621992508  0.2653757438656165  1.0000
  N   N2        1.0  0.48098505807492287  0.5321736371311667  0.7346242561001033  1.0000
  N   N3        1.0  0.7728702496263341  0.8913097158778861  0.08264419649681556  1.0000
  N   N4        1.0  0.22712974986700013  0.10869028345375129  0.9173558034661706  1.0000
  N   N5        1.0  0.7741774173026543  0.11973304577421996  0.08019819007545156  1.0000
  N   N6        1.0  0.22582258169199465  0.880266954609763  0.9198018098884365  1.0000
  F   F1        1.0  0.3624298136598132  0.2582854998643404  0.563202133843892  1.0000
  F   F2        1.0  0.6375701873024928  0.7417145005184228  0.43679786612272964  1.0000
  F   F3        1.0  0.201736982226449  0.946224939587168  0.3449019865777936  1.0000
  F   F4        1.0  0.7982630172668851  0.05377505974446926  0.6550980133851926  1.0000
  I   I1        1.0  0.944804688410045  0.27364683165306425  0.37100612976063707  1.0000
  I   I2        1.0  0.055195313050946326  0.7263531676773533  0.6289938702050827  1.0000
