data_image0
_chemical_formula_structural       H32C60N12F16I8
_chemical_formula_sum              "H32 C60 N12 F16 I8"
_cell_length_a       12.958563827609796
_cell_length_b       4.3907165198499705
_cell_length_c       28.568246585161337
_cell_angle_alpha    90.0
_cell_angle_beta     101.89973842789493
_cell_angle_gamma    90.0

_space_group_name_H-M_alt    "P 1"
_space_group_IT_number       1

loop_
  _space_group_symop_operation_xyz
  'x, y, z'

loop_
  _atom_site_type_symbol
  _atom_site_label
  _atom_site_symmetry_multiplicity
  _atom_site_fract_x
  _atom_site_fract_y
  _atom_site_fract_z
  _atom_site_occupancy
  H   H1        1.0  0.7542196893951856  0.4818517798712935  0.9685539575712098  1.0000
  H   H2        1.0  0.2457803102632924  0.9818517798883785  0.5314460424703294  1.0000
  H   H3        1.0  0.24578031040102624  0.5181482201628761  0.03144604235025587  1.0000
  H   H4        1.0  0.7542196895329195  0.018148220145791323  0.46855395745113626  1.0000
  H   H5        1.0  0.7610965126444229  0.7715917355820917  0.05587174338757711  1.0000
  H   H6        1.0  0.2389034874500581  0.27159173556500676  0.4441282567715403  1.0000
  H   H7        1.0  0.23890348715178888  0.2284082644520781  0.9441282565338885  1.0000
  H   H8        1.0  0.7610965131182799  0.728408264469163  0.55587174315089  1.0000
  H   H9        1.0  0.06729817371175671  0.9686499255354627  0.2457572442204461  1.0000
  H   H10       1.0  0.9327018263827244  0.4686499255183779  0.25424275593867135  1.0000
  H   H11       1.0  0.9327018262449904  0.03135007449870698  0.7542427560587449  1.0000
  H   H12       1.0  0.06729817341348747  0.5313500745157919  0.7457572439827944  1.0000
  H   H13       1.0  0.9369991586886125  0.20025216067240972  0.1782742912852952  1.0000
  H   H14       1.0  0.06300084124533326  0.7002521606894946  0.32172570851609694  1.0000
  H   H15       1.0  0.06300084110759939  0.79974783936176  0.8217257086361704  1.0000
  H   H16       1.0  0.9369991585508786  0.29974783934467514  0.6782742914053687  1.0000
  H   H17       1.0  0.0971588942034619  0.726574119640274  0.08109861664097404  1.0000
  H   H18       1.0  0.9028411057304837  0.22657411962318916  0.4189013831604181  1.0000
  H   H19       1.0  0.9028411055927499  0.2734258803938957  0.9189013832804916  1.0000
  H   H20       1.0  0.097158894065728  0.7734258804109806  0.5810986167610476  1.0000
  H   H21       1.0  0.21747452312752186  0.5098883291323254  0.15204085865908643  1.0000
  H   H22       1.0  0.7825254768064237  0.009888329115240522  0.34795914114230575  1.0000
  H   H23       1.0  0.7825254774408162  0.4901116709018443  0.8479591412633439  1.0000
  H   H24       1.0  0.21747452298978798  0.9901116709189292  0.65204085877916  1.0000
  H   H25       1.0  0.8622951386846679  0.21798348758637326  0.0941603504021485  1.0000
  H   H26       1.0  0.13770486124927786  0.7179834876034581  0.40583964939924366  1.0000
  H   H27       1.0  0.13770486111154395  0.7820165124477965  0.9058396495193172  1.0000
  H   H28       1.0  0.8622951385469338  0.2820165124307116  0.5941603505222219  1.0000
  H   H29       1.0  0.97471053284592  0.34559327005967794  0.07305260026811476  1.0000
  H   H30       1.0  0.02528946724856102  0.8455932700767628  0.4269473998910026  1.0000
  H   H31       1.0  0.025289467882953314  0.6544067299744918  0.9269474000120408  1.0000
  H   H32       1.0  0.9747105325476508  0.15440672995740695  0.5730526000304631  1.0000
  C   C1        1.0  0.9519616508035478  0.9228504440406129  0.002074458397637509  1.0000
  C   C2        1.0  0.04803834913039792  0.4228504440235281  0.4979255414037546  1.0000
  C   C3        1.0  0.048038348992664064  0.07714955599355677  0.9979255415238282  1.0000
  C   C4        1.0  0.9519616506658138  0.5771495560106416  0.502074458517711  1.0000
  C   C5        1.0  0.8119079269893051  0.6401455291620696  0.9877004324891117  1.0000
  C   C6        1.0  0.18809207266917277  0.14014552914498474  0.5122995675524277  1.0000
  C   C7        1.0  0.18809207280690662  0.3598544708721001  0.012299567432354138  1.0000
  C   C8        1.0  0.8119079272875745  0.859854470889185  0.4877004327267633  1.0000
  C   C9        1.0  0.8137128802241689  0.7790108708992387  0.03107486388241273  1.0000
  C   C10       1.0  0.18628711987031213  0.2790108708821538  0.4689251362767046  1.0000
  C   C11       1.0  0.18628711957204283  0.220989129134931  0.9689251360390528  1.0000
  C   C12       1.0  0.813712880086435  0.7209891291520159  0.5310748640024863  1.0000
  C   C13       1.0  0.07062321528560273  0.9200590522610274  0.20856949874579087  1.0000
  C   C14       1.0  0.9293767848088784  0.42005905224394247  0.2914305014133266  1.0000
  C   C15       1.0  0.9293767846711444  0.0799409477731424  0.7914305015334  1.0000
  C   C16       1.0  0.07062321498733341  0.5799409477902272  0.708569498508139  1.0000
  C   C17       1.0  0.9989256921204382  0.05086140701418609  0.17091808246288107  1.0000
  C   C18       1.0  0.0010743079740427768  0.550861407031271  0.32908191769623635  1.0000
  C   C19       1.0  0.001074307675773626  0.9491385930199836  0.8290819174585847  1.0000
  C   C20       1.0  0.9989256925942951  0.44913859300289877  0.670918082226194  1.0000
  C   C21       1.0  0.007168376863817143  0.9873379710125604  0.12381429673284636  1.0000
  C   C22       1.0  0.9928316230701284  0.4873379709954755  0.37618570306854576  1.0000
  C   C23       1.0  0.9928316237045208  0.012662029021609365  0.876185703189584  1.0000
  C   C24       1.0  0.007168376726083285  0.5126620290386943  0.6238142968529199  1.0000
  C   C25       1.0  0.08727436413075958  0.7901205223147818  0.11673677693951517  1.0000
  C   C26       1.0  0.912725635803186  0.290120522297697  0.383263222861877  1.0000
  C   C27       1.0  0.9127256364375783  0.20987947771938784  0.8832632229829152  1.0000
  C   C28       1.0  0.08727436399302567  0.7098794777364728  0.6167367770595886  1.0000
  C   C29       1.0  0.15479309448963244  0.6666125897146308  0.15644732225267396  1.0000
  C   C30       1.0  0.8452069056048485  0.16661258969754594  0.34355267790644345  1.0000
  C   C31       1.0  0.8452069060787055  0.3333874103195389  0.8435526776697564  1.0000
  C   C32       1.0  0.15479309435189856  0.8333874103366238  0.6564473223727475  1.0000
  C   C33       1.0  0.9342516477024053  0.14374144109434908  0.08303903944367401  1.0000
  C   C34       1.0  0.06574835223154028  0.6437414411114339  0.4169609603577181  1.0000
  C   C35       1.0  0.06574835209380639  0.8562585589398206  0.9169609604777916  1.0000
  C   C36       1.0  0.9342516475646715  0.3562585589227357  0.5830390395637476  1.0000
  C   C37       1.0  0.3815416305351916  0.3090552564405519  0.33864342941327946  1.0000
  C   C38       1.0  0.6184583687871632  0.8090552564576367  0.16135657074487325  1.0000
  C   C39       1.0  0.6184583694215555  0.6909447435936178  0.6613565708659115  1.0000
  C   C40       1.0  0.38154163100904853  0.19094474357653302  0.8386434291765924  1.0000
  C   C41       1.0  0.4903810851552023  0.36590994948926864  0.35175297858473825  1.0000
  C   C42       1.0  0.5096189147787433  0.8659099495063535  0.1482470212166539  1.0000
  C   C43       1.0  0.5096189146410095  0.6340900505449011  0.6482470213367275  1.0000
  C   C44       1.0  0.49038108501746847  0.13409005052781625  0.8517529787048118  1.0000
  C   C45       1.0  0.5489830088952101  0.23840853429448192  0.39369700535377355  1.0000
  C   C46       1.0  0.45101699119927086  0.7384085343115668  0.1063029948053438  1.0000
  C   C47       1.0  0.45101699106153703  0.7615914657396878  0.6063029949254173  1.0000
  C   C48       1.0  0.5489830085969409  0.26159146572260294  0.8936970051161219  1.0000
  C   C49       1.0  0.5023528593216597  0.04704147923607184  0.42232448808746503  1.0000
  C   C50       1.0  0.4976471406122859  0.5470414792531567  0.07767551171392709  1.0000
  C   C51       1.0  0.49764714047455194  0.9529585207980978  0.5776755118340006  1.0000
  C   C52       1.0  0.5023528599560521  0.452958520781013  0.9223244882085032  1.0000
  C   C53       1.0  0.3948396519971881  0.986267733392173  0.40914750500787267  1.0000
  C   C54       1.0  0.6051603480972928  0.48626773337508805  0.09085249515124474  1.0000
  C   C55       1.0  0.6051603477990235  0.013732266641996792  0.590852494913593  1.0000
  C   C56       1.0  0.39483965247104513  0.5137322666590816  0.9091475047711856  1.0000
  C   C57       1.0  0.33591057846339323  0.12188564840853958  0.36814125965940125  1.0000
  C   C58       1.0  0.6640894216310878  0.6218856484256243  0.13185874049971616  1.0000
  C   C59       1.0  0.6640894222654802  0.8781143516256301  0.6318587406207544  1.0000
  C   C60       1.0  0.335910578165124  0.3781143516085453  0.8681412594217496  1.0000
  N   N1        1.0  0.902922253074451  0.9580395160978724  0.040249892471606985  1.0000
  N   N2        1.0  0.09707774685949463  0.4580395160807875  0.45975010732978516  1.0000
  N   N3        1.0  0.09707774749388694  0.04196048393629733  0.9597501074508235  1.0000
  N   N4        1.0  0.9029222529367172  0.5419604839533823  0.5402498925916805  1.0000
  N   N5        1.0  0.8975065327079309  0.7304089834771621  0.9698478287368795  1.0000
  N   N6        1.0  0.10249346756213774  0.23040898346007727  0.5301521709478991  1.0000
  N   N7        1.0  0.102493467860407  0.26959101655700757  0.0301521711855509  1.0000
  N   N8        1.0  0.8975065322340741  0.7695910165740923  0.4698478289735665  1.0000
  N   N9        1.0  0.14732132306362933  0.7307373011887436  0.2015618949856564  1.0000
  N   N10       1.0  0.8526786770308518  0.23073730117165872  0.29843810517346103  1.0000
  N   N11       1.0  0.8526786768931177  0.26926269656789353  0.7984381052935344  1.0000
  N   N12       1.0  0.14732132276536009  0.7692626965849784  0.7015618947480046  1.0000
  F   F1        1.0  0.6539361444010503  0.2903879433426886  0.40724974636074723  1.0000
  F   F2        1.0  0.3460638555328953  0.7903879433597735  0.09275025344064491  1.0000
  F   F3        1.0  0.34606385539516143  0.7096120566914811  0.5927502535607184  1.0000
  F   F4        1.0  0.6539361442633164  0.20961205667439625  0.9072497464808208  1.0000
  F   F5        1.0  0.560226597704745  0.9150027385820111  0.46172037007077893  1.0000
  F   F6        1.0  0.43977340222920064  0.4150027385649262  0.03827962973061318  1.0000
  F   F7        1.0  0.43977340209146676  0.08499726145215863  0.5382796298506867  1.0000
  F   F8        1.0  0.5602265975670111  0.5849972614692435  0.9617203701908524  1.0000
  F   F9        1.0  0.3492383121012456  0.7952850985058165  0.4360701582235012  1.0000
  F   F10       1.0  0.6507616879932354  0.29528509848873175  0.06392984193561618  1.0000
  F   F11       1.0  0.6507616878555016  0.20471490152835312  0.5639298420556896  1.0000
  F   F12       1.0  0.3492383125751025  0.7047149015454379  0.9360701579868141  1.0000
  F   F13       1.0  0.23029854106944353  0.06405813008615974  0.3579180817772949  1.0000
  F   F14       1.0  0.7697014588645021  0.5640581301032446  0.14208191802409723  1.0000
  F   F15       1.0  0.7697014587267681  0.9359418676704773  0.6420819181441707  1.0000
  F   F16       1.0  0.23029854170383576  0.4359418699309251  0.8579180818983331  1.0000
  I   I1        1.0  0.28014480606845904  0.4928556786157406  0.2761827598913477  1.0000
  I   I2        1.0  0.7198551940260219  0.9928556786328254  0.22381724026776972  1.0000
  I   I3        1.0  0.7198551938882882  0.5071443214184291  0.7238172403878432  1.0000
  I   I4        1.0  0.28014480654231594  0.007144321401344274  0.7761827596546607  1.0000
  I   I5        1.0  0.5731938916375756  0.6145130180465842  0.30834294973179943  1.0000
  I   I6        1.0  0.4268061076847792  0.11451301802949927  0.1916570504263533  1.0000
  I   I7        1.0  0.4268061083191716  0.3854869819875856  0.6916570505473916  1.0000
  I   I8        1.0  0.5731938921114326  0.8854869820046704  0.8083429494951123  1.0000
