data_image0
_chemical_formula_structural       H16C42N6F16I4
_chemical_formula_sum              "H16 C42 N6 F16 I4"
_cell_length_a       8.081852703788698
_cell_length_b       8.398707467949203
_cell_length_c       15.839035265643934
_cell_angle_alpha    84.46860897260864
_cell_angle_beta     79.1071395153016
_cell_angle_gamma    83.48340407928688

_space_group_name_H-M_alt    "P 1"
_space_group_IT_number       1

loop_
  _space_group_symop_operation_xyz
  'x, y, z'

loop_
  _atom_site_type_symbol
  _atom_site_label
  _atom_site_symmetry_multiplicity
  _atom_site_fract_x
  _atom_site_fract_y
  _atom_site_fract_z
  _atom_site_occupancy
  H   H1        1.0  0.5388394264326405  0.1605616606702949  0.9793958535087667  1.0000
  H   H2        1.0  0.46116057323069315  0.8394383387629555  0.020604146710861946  1.0000
  H   H3        1.0  0.6942744712358317  0.0005705245515127713  0.8352777110447628  1.0000
  H   H4        1.0  0.3057255282888129  0.9994294760800735  0.1647222891753068  1.0000
  H   H5        1.0  0.10240924850857448  0.6896030747567347  0.7045808985801724  1.0000
  H   H6        1.0  0.8975907511547594  0.31039692467651575  0.2954191016394562  1.0000
  H   H7        1.0  0.8608555071969445  0.6918796290545555  0.9721676806549578  1.0000
  H   H8        1.0  0.13914449356544012  0.3081203715743463  0.02783231956487825  1.0000
  H   H9        1.0  0.8199901201819808  0.40223220501899154  0.9677188374586028  1.0000
  H   H10       1.0  0.1800098794813528  0.5977677944142588  0.03228116276102575  1.0000
  H   H11       1.0  0.9267673218855517  0.2701137333230743  0.8298193658488704  1.0000
  H   H12       1.0  0.07323267763909311  0.7298862673085117  0.17018063437119924  1.0000
  H   H13       1.0  0.1511041745109547  0.8910875530279295  0.8519256762848348  1.0000
  H   H14       1.0  0.8488958252410778  0.10891244769680598  0.14807432329039374  1.0000
  H   H15       1.0  0.019499338036175883  0.9501690472334963  0.7745416237505465  1.0000
  H   H16       1.0  0.9805006618545454  0.049830952292903616  0.22545837582424125  1.0000
  C   C1        1.0  0.9234047395400898  0.018433953619232946  0.9817220160795831  1.0000
  C   C2        1.0  0.07659526012324393  0.9815660458140175  0.018277984140045538  1.0000
  C   C3        1.0  0.6664092051240753  0.1026007815691949  0.9642360186501323  1.0000
  C   C4        1.0  0.33359079462795693  0.8973992191555407  0.03576398092509627  1.0000
  C   C5        1.0  0.7408455667287424  0.02550552877794561  0.8918881301115211  1.0000
  C   C6        1.0  0.2591544329345914  0.9744944706553048  0.10811187010810747  1.0000
  C   C7        1.0  0.04046052223853783  0.6299622400998671  0.7646300745872557  1.0000
  C   C8        1.0  0.9595394785238468  0.37003776052903464  0.2353699256325803  1.0000
  C   C9        1.0  0.9873348686103174  0.7140147428193844  0.8388439966786587  1.0000
  C   C10       1.0  0.012665130914327303  0.2859852578122018  0.1611560035414109  1.0000
  C   C11       1.0  0.9060167399047648  0.6313630817445116  0.9130581901193141  1.0000
  C   C12       1.0  0.09398325975856894  0.3686369176887387  0.08694181010031438  1.0000
  C   C13       1.0  0.8828042773372607  0.4700974154552392  0.9110305460917656  1.0000
  C   C14       1.0  0.11719572356381293  0.5299025839753267  0.08896945412762948  1.0000
  C   C15       1.0  0.942018947064519  0.39616598731923164  0.8346828030108504  1.0000
  C   C16       1.0  0.057981053697865624  0.6038340133096699  0.16531719720898574  1.0000
  C   C17       1.0  0.023982506704326365  0.886324016058783  0.8380461088889688  1.0000
  C   C18       1.0  0.9760174930477059  0.11367598466595263  0.16195389068625984  1.0000
  C   C19       1.0  0.19886464779880306  0.08949615786929832  0.5450355330994708  1.0000
  C   C20       1.0  0.8011353529635815  0.9105038427596033  0.4549644671203652  1.0000
  C   C21       1.0  0.15958022085835258  0.11600879581522175  0.462507528126149  1.0000
  C   C22       1.0  0.8404197788049811  0.8839912036180285  0.5374924720934796  1.0000
  C   C23       1.0  0.21791325444411008  0.0058864223646542205  0.4007385362140888  1.0000
  C   C24       1.0  0.7820867454466113  0.9941135771617453  0.5992614633606989  1.0000
  C   C25       1.0  0.3158033838990979  0.862059026502687  0.41817778047949294  1.0000
  C   C26       1.0  0.6841966159916235  0.13794097302371292  0.5818222190952946  1.0000
  C   C27       1.0  0.35056708112447055  0.8341975789937295  0.5020264660911193  1.0000
  C   C28       1.0  0.649432919776603  0.16580242043683643  0.4979735341282758  1.0000
  C   C29       1.0  0.2924072783327537  0.9447550395063383  0.5637643766156804  1.0000
  C   C30       1.0  0.7075927215579677  0.0552449600200615  0.4362356229591073  1.0000
  C   C31       1.0  0.48873712970910294  0.5196116791120365  0.22554723396699008  1.0000
  C   C32       1.0  0.5112628700429294  0.48038832161269907  0.7744527656082386  1.0000
  C   C33       1.0  0.39420374913906525  0.47440779848801345  0.3056574215611663  1.0000
  C   C34       1.0  0.6057962505242687  0.5255922009452368  0.6943425786584623  1.0000
  C   C35       1.0  0.3398051580780324  0.5843356359397398  0.36801543577258794  1.0000
  C   C36       1.0  0.6601948428230413  0.4156643634908261  0.6319845644468071  1.0000
  C   C37       1.0  0.3758272971358833  0.745167818697611  0.3525352827769452  1.0000
  C   C38       1.0  0.624172703992578  0.25483218082610437  0.647464716797609  1.0000
  C   C39       1.0  0.47123113712090886  0.7885349683383396  0.27179441688177336  1.0000
  C   C40       1.0  0.5287688627698125  0.21146503118806026  0.7282055826930144  1.0000
  C   C41       1.0  0.5282329277923513  0.6782335051780424  0.20996191870780354  1.0000
  C   C42       1.0  0.47176707187098227  0.32176649425520804  0.790038081511825  1.0000
  N   N1        1.0  0.9043215517413039  0.9741156046984134  0.9024679137832  1.0000
  N   N2        1.0  0.09567844814941749  0.025884394827986386  0.09753208579158767  1.0000
  N   N3        1.0  0.7791058105323931  0.09838936774091236  0.01941044847300425  1.0000
  N   N4        1.0  0.22089418921963916  0.9016106329838232  0.9805895511022243  1.0000
  N   N5        1.0  0.01917479737556761  0.47463019342978807  0.7626768320752696  1.0000
  N   N6        1.0  0.9808252037528938  0.5253698060939272  0.2373231674992846  1.0000
  F   F1        1.0  0.05985756354486015  0.24865810057620413  0.4414545919292652  1.0000
  F   F2        1.0  0.9401424372175246  0.7513419000526975  0.5585454082905708  1.0000
  F   F3        1.0  0.17377207177561524  0.03835556829617591  0.32189031089458536  1.0000
  F   F4        1.0  0.8262279278877186  0.9616444311370744  0.6781096893250432  1.0000
  F   F5        1.0  0.44531480046224436  0.6987338029612643  0.5239865901556259  1.0000
  F   F6        1.0  0.5546852004388294  0.30126619646930153  0.4760134100637691  1.0000
  F   F7        1.0  0.32949833144490265  0.9076156595228313  0.6437465491569857  1.0000
  F   F8        1.0  0.670501669317482  0.09238434110607034  0.3562534510628503  1.0000
  F   F9        1.0  0.35360543540430983  0.3219014582601292  0.3232314784256383  1.0000
  F   F10       1.0  0.6463945643477226  0.6780985424646063  0.6767685211495903  1.0000
  F   F11       1.0  0.2473058356628048  0.5344712652300909  0.4438703682985818  1.0000
  F   F12       1.0  0.7526941642279165  0.4655287342963089  0.5561296312762058  1.0000
  F   F13       1.0  0.5128078597649746  0.9410965408562313  0.25242575912242743  1.0000
  F   F14       1.0  0.48719213989835913  0.058903458577019126  0.7475742410972013  1.0000
  F   F15       1.0  0.6253087820338639  0.7277333673171312  0.13445792005925414  1.0000
  F   F16       1.0  0.37469121909459735  0.27226663220658415  0.8655420795152999  1.0000
  I   I1        1.0  0.12393888864589354  0.2660049840678555  0.6357556488155324  1.0000
  I   I2        1.0  0.8760611108787513  0.7339950165637307  0.3642443514045371  1.0000
  I   I3        1.0  0.5759680460670297  0.35027732344320206  0.13565624531192794  1.0000
  I   I4        1.0  0.42403195368500257  0.6497226772815335  0.8643437542633007  1.0000
