data_image0
_chemical_formula_structural       H72C68N16O16S8
_chemical_formula_sum              "H72 C68 N16 O16 S8"
_cell_length_a       9.970727046888468
_cell_length_b       9.802060449688954
_cell_length_c       18.712173278886457
_cell_angle_alpha    90.0
_cell_angle_beta     95.77263632097568
_cell_angle_gamma    90.0

_space_group_name_H-M_alt    "P 1"
_space_group_IT_number       1

loop_
  _space_group_symop_operation_xyz
  'x, y, z'

loop_
  _atom_site_type_symbol
  _atom_site_label
  _atom_site_symmetry_multiplicity
  _atom_site_fract_x
  _atom_site_fract_y
  _atom_site_fract_z
  _atom_site_occupancy
  H   H1        1.0  0.727897176418941  0.5920253746429556  0.02753311211695955  1.0000
  H   H2        1.0  0.27210282323865975  0.09202537513718599  0.4724668878148822  1.0000
  H   H3        1.0  0.27210282341056874  0.40797462538877716  0.9724668882398658  1.0000
  H   H4        1.0  0.7278971765961011  0.9079746248945467  0.5275331120078203  1.0000
  H   H5        1.0  0.9213691274166821  0.655858819989628  0.11553199824573708  1.0000
  H   H6        1.0  0.07863087224091872  0.1558588204838585  0.38446800168610473  1.0000
  H   H7        1.0  0.07863087241807873  0.34414118004210464  0.8844680015769654  1.0000
  H   H8        1.0  0.9213691275938419  0.8441411795478743  0.6155319981365979  1.0000
  H   H9        1.0  0.987605543263686  0.511357221854213  0.22147172316188493  1.0000
  H   H10       1.0  0.01239445740194882  0.011357222348443344  0.27852827682676556  1.0000
  H   H11       1.0  0.012394456571074665  0.4886427781775199  0.7785282766608176  1.0000
  H   H12       1.0  0.9876055434408461  0.9886427776832893  0.7214717230527458  1.0000
  H   H13       1.0  0.9703696812943394  0.29873398710705973  0.2875673286745985  1.0000
  H   H14       1.0  0.029630318363261233  0.798733987633023  0.2124326712572433  1.0000
  H   H15       1.0  0.02963031853517024  0.701266012924673  0.7124326716822268  1.0000
  H   H16       1.0  0.9703696814714996  0.20126601239870978  0.7875673285654592  1.0000
  H   H17       1.0  0.8661271754448044  0.16571126737455938  0.24756142756784708  1.0000
  H   H18       1.0  0.13387282421279642  0.6657112668803289  0.2524385723639947  1.0000
  H   H19       1.0  0.13387282438995643  0.8342887326571733  0.7524385722548556  1.0000
  H   H20       1.0  0.8661271756219643  0.33428873315140384  0.7475614274587078  1.0000
  H   H21       1.0  0.7961115774560286  0.288612997697823  0.3018193729255688  1.0000
  H   H22       1.0  0.20388842220157222  0.7886129972035925  0.19818062700627298  1.0000
  H   H23       1.0  0.20388842237873223  0.7113870023339097  0.6981806268971338  1.0000
  H   H24       1.0  0.7961115776331886  0.2113870028281402  0.8018193728164296  1.0000
  H   H25       1.0  0.18997063998560287  0.7223757960220182  0.06864030488361213  1.0000
  H   H26       1.0  0.810029359671998  0.22237579651624867  0.43135969504822963  1.0000
  H   H27       1.0  0.8100293598439068  0.2776242040097145  0.9313596954732132  1.0000
  H   H28       1.0  0.1899706401627629  0.777624203515484  0.5686403047744729  1.0000
  H   H29       1.0  0.9938661083390548  0.6146885546080463  0.9986392253084593  1.0000
  H   H30       1.0  0.00613389167286598  0.11468855408208317  0.5013607744051041  1.0000
  H   H31       1.0  0.00613389149570597  0.38531144542368634  0.001360774514243261  1.0000
  H   H32       1.0  0.993866109169929  0.8853114459496496  0.4986392254744073  1.0000
  H   H33       1.0  0.9573755288099535  0.9601144431116663  0.8567526798095  1.0000
  H   H34       1.0  0.04262447119671624  0.46011444360589676  0.643247320438186  1.0000
  H   H35       1.0  0.04262447101955623  0.03988555692006636  0.14324732054732525  1.0000
  H   H36       1.0  0.9573755296408276  0.5398855564258359  0.35675267997544813  1.0000
  H   H37       1.0  0.15454723215364768  0.07060205081901536  0.9265603082761162  1.0000
  H   H38       1.0  0.845452767853022  0.570602050324785  0.57343969197157  1.0000
  H   H39       1.0  0.8454527676758621  0.9293979492127173  0.07343969208070919  1.0000
  H   H40       1.0  0.15454723298977283  0.4293979497069478  0.42656030790794136  1.0000
  H   H41       1.0  0.4704232189773936  0.02427653259448641  0.13205071700329132  1.0000
  H   H42       1.0  0.5295767806802072  0.5242765321002559  0.3679492829285504  1.0000
  H   H43       1.0  0.5295767808573671  0.9757234674372463  0.8679492828194113  1.0000
  H   H44       1.0  0.4704232191545536  0.4757234679314768  0.632050716894152  1.0000
  H   H45       1.0  0.334859288720672  0.8992343186661028  0.08717927426545659  1.0000
  H   H46       1.0  0.6651407109369287  0.3992343191603333  0.41282072566638517  1.0000
  H   H47       1.0  0.6651407111140888  0.10076568034543623  0.9128207255572459  1.0000
  H   H48       1.0  0.33485928889258104  0.6007656808713994  0.5871792746904402  1.0000
  H   H49       1.0  0.4317266225438669  0.6026836439462544  0.21815241686925607  1.0000
  H   H50       1.0  0.568273378121768  0.10268364444048489  0.28184758311939445  1.0000
  H   H51       1.0  0.5682733772908938  0.39731635608547833  0.7818475829534464  1.0000
  H   H52       1.0  0.43172662271577594  0.8973163555912478  0.7181524172942395  1.0000
  H   H53       1.0  0.6119940870220043  0.5813997750014736  0.2317482208505022  1.0000
  H   H54       1.0  0.38800591263559636  0.0813997744755103  0.2682517790813396  1.0000
  H   H55       1.0  0.3880059128127563  0.4186002250302592  0.7682517789722003  1.0000
  H   H56       1.0  0.6119940871991645  0.9186002255562224  0.7317482207413629  1.0000
  H   H57       1.0  0.532387002303547  0.6266568372565912  0.1437303591140212  1.0000
  H   H58       1.0  0.46761299735405387  0.12665683775082165  0.3562696408178206  1.0000
  H   H59       1.0  0.4676129975312139  0.3733431627751415  0.8562696407086813  1.0000
  H   H60       1.0  0.5323870024754559  0.8733431622809111  0.6437303595390047  1.0000
  H   H61       1.0  0.681704443809529  0.8270582579662884  0.12954433760495293  1.0000
  H   H62       1.0  0.31829555584282077  0.3270582584605189  0.37045566286101167  1.0000
  H   H63       1.0  0.3182955560199807  0.17294174206544427  0.8704556627518725  1.0000
  H   H64       1.0  0.6817044439866891  0.6729417415712138  0.6295443374958137  1.0000
  H   H65       1.0  0.7745729046287776  0.797450213668907  0.21661091843080196  1.0000
  H   H66       1.0  0.22542709502882322  0.2974502131429439  0.28338908150103986  1.0000
  H   H67       1.0  0.22542709520598322  0.2025497863628256  0.7833890813919007  1.0000
  H   H68       1.0  0.7745729048059377  0.7025497868887888  0.7166109183216627  1.0000
  H   H69       1.0  0.7085738744751079  0.9652552969411893  0.19336037341762813  1.0000
  H   H70       1.0  0.29142612518249283  0.4652552974354199  0.30663962651421367  1.0000
  H   H71       1.0  0.29142612535965284  0.03474470309054329  0.8066396264050744  1.0000
  H   H72       1.0  0.7085738746470169  0.5347447025963128  0.6933603738426116  1.0000
  C   C1        1.0  0.5516685132082433  0.20399461013969278  0.09787107713383938  1.0000
  C   C2        1.0  0.44833148644935755  0.703994610665656  0.40212892279800244  1.0000
  C   C3        1.0  0.4483314866212665  0.79600538989204  0.9021289232229861  1.0000
  C   C4        1.0  0.5516685133854032  0.29600538936607673  0.5978710770247001  1.0000
  C   C5        1.0  0.7230462385972058  0.32568657236768045  0.1475943976291605  1.0000
  C   C6        1.0  0.2769537620684291  0.8256865718734501  0.35240560235949  1.0000
  C   C7        1.0  0.2769537612323039  0.6743134276640522  0.8524056027276649  1.0000
  C   C8        1.0  0.7230462387743658  0.1743134281582827  0.6475943975200211  1.0000
  C   C9        1.0  0.6860316135839624  0.409307902210225  0.08699666736366367  1.0000
  C   C10       1.0  0.31396838607363836  0.9093079017159944  0.4130033325681781  1.0000
  C   C11       1.0  0.31396838625079837  0.5906920978215078  0.913003332459039  1.0000
  C   C12       1.0  0.6860316137611223  0.09069209831573824  0.5869966672545245  1.0000
  C   C13       1.0  0.7563943366768109  0.5284299445597038  0.07422102783021825  1.0000
  C   C14       1.0  0.2436056629807899  0.028429944033740686  0.4257789721016235  1.0000
  C   C15       1.0  0.2436056631579499  0.47157005547202885  0.9257789719924842  1.0000
  C   C16       1.0  0.7563943368487199  0.971570055997992  0.5742210282552017  1.0000
  C   C17       1.0  0.8645124489884086  0.5632739226960393  0.12392914511893627  1.0000
  C   C18       1.0  0.13548755066919219  0.0632739221700761  0.3760708548129055  1.0000
  C   C19       1.0  0.13548755084635222  0.4367260773356934  0.8760708547037662  1.0000
  C   C20       1.0  0.8645124491655686  0.9367260778616566  0.6239291450097969  1.0000
  C   C21       1.0  0.9015406739481779  0.48139390021306544  0.18423006732591476  1.0000
  C   C22       1.0  0.09845932570942285  0.9813939007390287  0.315769932605927  1.0000
  C   C23       1.0  0.09845932588133188  0.5186060998186672  0.8157699330309105  1.0000
  C   C24       1.0  0.901540674125338  0.018606099292704053  0.6842300672167755  1.0000
  C   C25       1.0  0.8325571791689665  0.3617402675896084  0.19757929609153912  1.0000
  C   C26       1.0  0.16744282048863404  0.8617402681155717  0.3024207038403027  1.0000
  C   C27       1.0  0.16744282066579408  0.6382597324421242  0.8024207037311634  1.0000
  C   C28       1.0  0.8325571793461266  0.13825973191616106  0.6975792959824  1.0000
  C   C29       1.0  0.8692805190694125  0.2741730704267673  0.26219439036653  1.0000
  C   C30       1.0  0.13071948159622251  0.7741730699325368  0.2378056096221205  1.0000
  C   C31       1.0  0.13071948076534837  0.7258269296049654  0.7378056094561726  1.0000
  C   C32       1.0  0.8692805192465723  0.22582693009919588  0.7621943902573907  1.0000
  C   C33       1.0  0.3616730649890206  0.07973297696045127  0.03645572208513624  1.0000
  C   C34       1.0  0.6383269346685801  0.5797329774864144  0.4635442778467056  1.0000
  C   C35       1.0  0.6383269348457401  0.9202670230712815  0.9635442777375661  1.0000
  C   C36       1.0  0.36167306516618064  0.4202670225453183  0.536455721975997  1.0000
  C   C37       1.0  0.18612436645173047  0.90391299619879  0.0020070387881259426  1.0000
  C   C38       1.0  0.8138756342086534  0.4039129956728267  0.4979929617346474  1.0000
  C   C39       1.0  0.8138756343858136  0.09608700383294284  0.9979929616255081  1.0000
  C   C40       1.0  0.1861243656208563  0.596087004358906  0.5020070386221779  1.0000
  C   C41       1.0  0.1389731576533731  0.775026887356226  0.022285675686773546  1.0000
  C   C42       1.0  0.8610268430122617  0.2750268878504566  0.47771432430187705  1.0000
  C   C43       1.0  0.8610268421813878  0.22497311267550663  0.977714324135929  1.0000
  C   C44       1.0  0.1389731578305331  0.7249731121812761  0.5222856755776343  1.0000
  C   C45       1.0  0.03000296153674969  0.7139675403881106  0.9834341725456542  1.0000
  C   C46       1.0  0.96999703846992  0.21396753986214742  0.5165658277020319  1.0000
  C   C47       1.0  0.9699970393060453  0.2860324596436221  0.01656582733385703  1.0000
  C   C48       1.0  0.030002961359589672  0.7860324601695853  0.48343417265479344  1.0000
  C   C49       1.0  0.9659002480106309  0.7816312885769974  0.9237453400361512  1.0000
  C   C50       1.0  0.03409975200128987  0.28163128805103427  0.5762546596774122  1.0000
  C   C51       1.0  0.03409975182412985  0.21836871145473527  0.07625465978655142  1.0000
  C   C52       1.0  0.9659002478334708  0.7183687119806985  0.4237453401452904  1.0000
  C   C53       1.0  0.01034337863722262  0.9097223808982902  0.9030830430429414  1.0000
  C   C54       1.0  0.9896566213694471  0.40972238037232694  0.5969169572047448  1.0000
  C   C55       1.0  0.9896566211922871  0.09027761913344254  0.09691695731388401  1.0000
  C   C56       1.0  0.010343379468096776  0.5902776196594057  0.4030830432088893  1.0000
  C   C57       1.0  0.11994180648227819  0.9708152453091603  0.9416491149507789  1.0000
  C   C58       1.0  0.8800581935243917  0.4708152458033908  0.5583508852969071  1.0000
  C   C59       1.0  0.8800581933472317  0.029184754722572415  0.05835088540604641  1.0000
  C   C60       1.0  0.11994180731840334  0.5291847542283419  0.4416491145826041  1.0000
  C   C61       1.0  0.5287832431859285  0.6369798148100719  0.20184276329933193  1.0000
  C   C62       1.0  0.4712167564716722  0.13697981530430237  0.29815723663250987  1.0000
  C   C63       1.0  0.47121675664358126  0.3630201852216608  0.7981572370574934  1.0000
  C   C64       1.0  0.5287832433630885  0.8630201847274304  0.7018427631901926  1.0000
  C   C65       1.0  0.6930578443066719  0.8547824983333862  0.18659749611073015  1.0000
  C   C66       1.0  0.3069421563589631  0.35478249882761675  0.3134025038779204  1.0000
  C   C67       1.0  0.30694215552283793  0.1452175016983464  0.8134025042460952  1.0000
  C   C68       1.0  0.6930578444838319  0.6452175012041159  0.6865974960015909  1.0000
  N   N1        1.0  0.6454249560602474  0.20978010598427307  0.15218424584606707  1.0000
  N   N2        1.0  0.3545750446053874  0.7097801054900426  0.3478157541425834  1.0000
  N   N3        1.0  0.3545750447825474  0.7902198940474596  0.8478157540334442  1.0000
  N   N4        1.0  0.6454249552293734  0.29021989454169017  0.652184245680119  1.0000
  N   N5        1.0  0.4638338598249825  0.09674329952026481  0.09095288946278586  1.0000
  N   N6        1.0  0.5361661398273674  0.596743300046228  0.40904711100317875  1.0000
  N   N7        1.0  0.5361661400045273  0.9032567005114679  0.9090471108940396  1.0000
  N   N8        1.0  0.4638338600021425  0.40325669998550473  0.5909528893536465  1.0000
  N   N9        1.0  0.2960053365075583  0.9570218627143519  0.043838100645769304  1.0000
  N   N10       1.0  0.7039946631500424  0.4570218632085823  0.4561618992860725  1.0000
  N   N11       1.0  0.7039946633272025  0.04297813731738087  0.9561618991769333  1.0000
  N   N12       1.0  0.29600533668471823  0.5429781368231504  0.54383810053663  1.0000
  N   N13       1.0  0.8517884894111851  0.7187518467327514  0.8828277132346407  1.0000
  N   N14       1.0  0.14821151059548476  0.21875184722698193  0.6171722870130454  1.0000
  N   N15       1.0  0.14821151041832475  0.28124815329898123  0.11717228712218465  1.0000
  N   N16       1.0  0.8517884892392759  0.7812481528047508  0.38282771280965716  1.0000
  O   O1        1.0  0.33513032972613677  0.16446714527772135  0.9879316073710291  1.0000
  O   O2        1.0  0.664869670285784  0.6644671458036846  0.5120683923425341  1.0000
  O   O3        1.0  0.664869670108624  0.8355328547540114  0.012068392451673364  1.0000
  O   O4        1.0  0.3351303305570109  0.3355328542280481  0.48793160753697723  1.0000
  O   O5        1.0  0.8182141376787934  0.6011573352607703  0.8989219499983871  1.0000
  O   O6        1.0  0.18178586233312735  0.10115733575500083  0.6010780497151762  1.0000
  O   O7        1.0  0.1817858631640015  0.39884266477096236  0.10107804988112416  1.0000
  O   O8        1.0  0.8182141375016334  0.898842664276732  0.3989219501075264  1.0000
  O   O9        1.0  0.7915997892624841  0.7864549448115905  0.8326350715364936  1.0000
  O   O10       1.0  0.20840021074418566  0.2864549442856273  0.6673649287111925  1.0000
  O   O11       1.0  0.20840021057227667  0.21354505522014222  0.16736492828620897  1.0000
  O   O12       1.0  0.7915997890853241  0.7135450557461054  0.33263507164563283  1.0000
  O   O13       1.0  0.42673555934481844  0.88264488006443  0.17730210902143137  1.0000
  O   O14       1.0  0.5732644403075313  0.3826448805586605  0.3226978914445332  1.0000
  O   O15       1.0  0.5732644404846913  0.11735511996730266  0.822697891335394  1.0000
  O   O16       1.0  0.42673555952197845  0.6173551194730722  0.677302108912292  1.0000
  S   S1        1.0  0.5476241032411492  0.33877359837189885  0.035645117831063056  1.0000
  S   S2        1.0  0.45237589641645154  0.838773598897862  0.4643548821007787  1.0000
  S   S3        1.0  0.45237589659361155  0.6612264016598338  0.9643548819916394  1.0000
  S   S4        1.0  0.5476241034183091  0.16122640113387066  0.5356451177219238  1.0000
  S   S5        1.0  0.5406913382059295  0.8139609382079641  0.22576036176728187  1.0000
  S   S6        1.0  0.4593086624597054  0.31396093768200095  0.2742396382213687  1.0000
  S   S7        1.0  0.45930866162883127  0.18603906182376856  0.7742396380554206  1.0000
  S   S8        1.0  0.5406913383830895  0.6860390623497317  0.7257603616581426  1.0000
