data_image0
_chemical_formula_structural       H16C40N8S20I6
_chemical_formula_sum              "H16 C40 N8 S20 I6"
_cell_length_a       20.680088809421726
_cell_length_b       9.876241043138705
_cell_length_c       7.166277635160119
_cell_angle_alpha    90.0
_cell_angle_beta     107.18286353849417
_cell_angle_gamma    90.0

_space_group_name_H-M_alt    "P 1"
_space_group_IT_number       1

loop_
  _space_group_symop_operation_xyz
  'x, y, z'

loop_
  _atom_site_type_symbol
  _atom_site_label
  _atom_site_symmetry_multiplicity
  _atom_site_fract_x
  _atom_site_fract_y
  _atom_site_fract_z
  _atom_site_occupancy
  H   H1        1.0  0.7126420803544842  0.756463512521327  0.8127983315232343  1.0000
  H   H2        1.0  0.2873579194815621  0.756463512521327  0.18720166850743367  1.0000
  H   H3        1.0  0.21264208019907319  0.25646351166769793  0.8127983302428086  1.0000
  H   H4        1.0  0.7873579196369732  0.25646351166769793  0.1872016697878595  1.0000
  H   H5        1.0  0.2873579194815621  0.2435364881734003  0.18720166850743367  1.0000
  H   H6        1.0  0.7126420803544842  0.2435364881734003  0.8127983315232343  1.0000
  H   H7        1.0  0.7873579196369732  0.7435364880144986  0.1872016697878595  1.0000
  H   H8        1.0  0.21264208019907319  0.7435364880144986  0.8127983302428086  1.0000
  H   H9        1.0  0.29923135074206053  0.6317331313348723  0.7009421326133032  1.0000
  H   H10       1.0  0.7007686490939857  0.6317331313348723  0.2990578674173648  1.0000
  H   H11       1.0  0.7992313507480893  0.13173313149377414  0.7009421324331124  1.0000
  H   H12       1.0  0.20076864908795708  0.13173313149377414  0.29905786759755554  1.0000
  H   H13       1.0  0.7007686490939857  0.36826686935985503  0.2990578674173648  1.0000
  H   H14       1.0  0.29923135074206053  0.36826686935985503  0.7009421326133032  1.0000
  H   H15       1.0  0.20076864908795708  0.8682668692009532  0.29905786759755554  1.0000
  H   H16       1.0  0.7992313507480893  0.8682668692009532  0.7009421324331124  1.0000
  C   C1        1.0  0.7746518036590391  0.5733264604688604  0.8450110435646109  1.0000
  C   C2        1.0  0.2253481961770072  0.5733264604688604  0.15498895646605718  1.0000
  C   C3        1.0  0.2746518036530104  0.07332646062776227  0.8450110437448017  1.0000
  C   C4        1.0  0.725348196183036  0.07332646062776227  0.1549889562858664  1.0000
  C   C5        1.0  0.2253481961770072  0.4266735392133359  0.15498895646605718  1.0000
  C   C6        1.0  0.7746518036590391  0.4266735392133359  0.8450110435646109  1.0000
  C   C7        1.0  0.725348196183036  0.926673540066965  0.1549889562858664  1.0000
  C   C8        1.0  0.2746518036530104  0.926673540066965  0.8450110437448017  1.0000
  C   C9        1.0  0.7136665700236223  0.6462727288773766  0.814089638694508  1.0000
  C   C10       1.0  0.2863334298124239  0.6462727288773766  0.1859103613361601  1.0000
  C   C11       1.0  0.21366657001759365  0.14627272903627847  0.8140896388746988  1.0000
  C   C12       1.0  0.7863334298184527  0.14627272903627847  0.18591036115596932  1.0000
  C   C13       1.0  0.2863334298124239  0.3537272708048197  0.1859103613361601  1.0000
  C   C14       1.0  0.7136665700236223  0.3537272708048197  0.814089638694508  1.0000
  C   C15       1.0  0.7863334298184527  0.853727270645918  0.18591036115596932  1.0000
  C   C16       1.0  0.21366657001759365  0.853727270645918  0.8140896388746988  1.0000
  C   C17       1.0  0.6548439018571057  0.572786034209853  0.7892910392763862  1.0000
  C   C18       1.0  0.34515609797894053  0.572786034209853  0.2107089607542819  1.0000
  C   C19       1.0  0.15484390185107702  0.07278603436875475  0.789291039456577  1.0000
  C   C20       1.0  0.8451560979849694  0.07278603436875475  0.2107089605740911  1.0000
  C   C21       1.0  0.34515609797894053  0.4272139654723434  0.2107089607542819  1.0000
  C   C22       1.0  0.6548439018571057  0.4272139654723434  0.7892910392763862  1.0000
  C   C23       1.0  0.8451560979849694  0.9272139653134417  0.2107089605740911  1.0000
  C   C24       1.0  0.15484390185107702  0.9272139653134417  0.789291039456577  1.0000
  C   C25       1.0  0.5316990775063408  0.4999999998410982  0.7459575806915596  1.0000
  C   C26       1.0  0.46830092232970555  0.4999999998410982  0.25404241933910837  1.0000
  C   C27       1.0  0.031699077500312034  0.9999999996821964  0.7459575808717505  1.0000
  C   C28       1.0  0.9683009223357344  0.9999999996821964  0.2540424191589176  1.0000
  C   C29       1.0  0.464148396065391  0.4999999998410982  0.7372774079958976  1.0000
  C   C30       1.0  0.5358516037706553  0.4999999998410982  0.26272259203477044  1.0000
  C   C31       1.0  0.9641483960714197  0.9999999996821964  0.7372774078157069  1.0000
  C   C32       1.0  0.035851603764626594  0.9999999996821964  0.2627225922149612  1.0000
  C   C33       1.0  0.3430356546653537  0.5683179628244692  0.7111410612513662  1.0000
  C   C34       1.0  0.6569643451706926  0.5683179628244692  0.28885893877930185  1.0000
  C   C35       1.0  0.8430356546713824  0.06831796197084007  0.7111410610711756  1.0000
  C   C36       1.0  0.15696434516466387  0.06831796197084007  0.2888589389594926  1.0000
  C   C37       1.0  0.6569643451706926  0.4316820378702581  0.28885893877930185  1.0000
  C   C38       1.0  0.3430356546653537  0.4316820378702581  0.7111410612513662  1.0000
  C   C39       1.0  0.15696434516466387  0.9316820377113563  0.2888589389594926  1.0000
  C   C40       1.0  0.8430356546713824  0.9316820377113563  0.7111410610711756  1.0000
  N   N1        1.0  0.8375238956556703  0.6268529325032041  0.8831643345198135  1.0000
  N   N2        1.0  0.16247610466397763  0.6268529325032041  0.11683566551129279  1.0000
  N   N3        1.0  0.3375238956496417  0.12685293266210582  0.8831643347000041  1.0000
  N   N4        1.0  0.6624761041864047  0.12685293266210582  0.11683566533066388  1.0000
  N   N5        1.0  0.16247610466397763  0.3731470671789924  0.11683566551129279  1.0000
  N   N6        1.0  0.8375238956556703  0.3731470671789924  0.8831643345198135  1.0000
  N   N7        1.0  0.6624761041864047  0.8731470680326215  0.11683566533066388  1.0000
  N   N8        1.0  0.3375238956496417  0.8731470680326215  0.8831643347000041  1.0000
  S   S1        1.0  0.8891846487066706  0.4999999998410982  0.9160528711935585  1.0000
  S   S2        1.0  0.11081535161297744  0.4999999998410982  0.0839471288375476  1.0000
  S   S3        1.0  0.38918464855125956  0.9999999996821964  0.9160528699131328  1.0000
  S   S4        1.0  0.6108153517683885  0.9999999996821964  0.0839471301179734  1.0000
  S   S5        1.0  0.5766357592707728  0.6495846255653098  0.7562307842432726  1.0000
  S   S6        1.0  0.4233642405652734  0.6495846255653098  0.24376921578739535  1.0000
  S   S7        1.0  0.07663575926474418  0.14958462572421155  0.7562307844234634  1.0000
  S   S8        1.0  0.9233642405713022  0.14958462572421155  0.2437692156072046  1.0000
  S   S9        1.0  0.4233642405652734  0.3504153741168866  0.24376921578739535  1.0000
  S   S10       1.0  0.5766357592707728  0.3504153741168866  0.7562307842432726  1.0000
  S   S11       1.0  0.9233642405713022  0.8504153739579848  0.2437692156072046  1.0000
  S   S12       1.0  0.07663575926474418  0.8504153739579848  0.7562307844234634  1.0000
  S   S13       1.0  0.41879018318117583  0.6490118570418106  0.7325290099663435  1.0000
  S   S14       1.0  0.5812098166548705  0.6490118570418106  0.2674709900643246  1.0000
  S   S15       1.0  0.9187901831872046  0.14901185720071244  0.7325290097861527  1.0000
  S   S16       1.0  0.08120981664884178  0.14901185720071244  0.26747099024451537  1.0000
  S   S17       1.0  0.5812098166548705  0.35098814365291675  0.2674709900643246  1.0000
  S   S18       1.0  0.41879018318117583  0.35098814365291675  0.7325290099663435  1.0000
  S   S19       1.0  0.08120981664884178  0.8509881434940149  0.26747099024451537  1.0000
  S   S20       1.0  0.9187901831872046  0.8509881434940149  0.7325290097861527  1.0000
  I   I1        1.0  0.500000000159824  0.9999999996821964  0.5000000000155531  1.0000
  I   I2        1.0  1.5379531016600542e-10  0.4999999998410982  0.5000000001957439  1.0000
  I   I3        1.0  0.35183938890470867  0.9999999996821964  0.39435968046488  1.0000
  I   I4        1.0  0.6481606109313376  0.9999999996821964  0.605640319565788  1.0000
  I   I5        1.0  0.8518393889107373  0.4999999998410982  0.39435968028468926  1.0000
  I   I6        1.0  0.14816061092530894  0.4999999998410982  0.6056403197459788  1.0000
