data_image0
_chemical_formula_structural       H8C20N4S10I8
_chemical_formula_sum              "H8 C20 N4 S10 I8"
_cell_length_a       8.464357782158483
_cell_length_b       9.529242023423627
_cell_length_c       11.499326686395847
_cell_angle_alpha    94.68734334234405
_cell_angle_beta     93.19809650911544
_cell_angle_gamma    101.52120598206143

_space_group_name_H-M_alt    "P 1"
_space_group_IT_number       1

loop_
  _space_group_symop_operation_xyz
  'x, y, z'

loop_
  _atom_site_type_symbol
  _atom_site_label
  _atom_site_symmetry_multiplicity
  _atom_site_fract_x
  _atom_site_fract_y
  _atom_site_fract_z
  _atom_site_occupancy
  H   H1        1.0  0.9166658504732951  0.23286045389541435  0.5493352116123699  1.0000
  H   H2        1.0  0.08333414929976651  0.7671395461476668  0.4506647881107906  1.0000
  H   H3        1.0  0.7726770034739173  0.981039671312373  0.5018059639153919  1.0000
  H   H4        1.0  0.22732299629914426  0.018960328730708242  0.4981940358077686  1.0000
  H   H5        1.0  0.31131222825503785  0.33474658799163653  0.9087473524808509  1.0000
  H   H6        1.0  0.6886877715180236  0.6652534120514446  0.09125264724230955  1.0000
  H   H7        1.0  0.5700993390623683  0.9180252677652204  0.31465496728165593  1.0000
  H   H8        1.0  0.429900661981234  0.08197473237511914  0.6853450333156839  1.0000
  C   C1        1.0  0.9993245754843  0.254662070725675  0.6276621910095921  1.0000
  C   C2        1.0  0.0006754242887616351  0.7453379293174061  0.3723378087135683  1.0000
  C   C3        1.0  0.13903878724192306  0.35934012133121546  0.6335307541929511  1.0000
  C   C4        1.0  0.8609612125311386  0.6406598787118658  0.3664692455302094  1.0000
  C   C5        1.0  0.2509907838533723  0.38903306344939614  0.7350372771561298  1.0000
  C   C6        1.0  0.7490092159196892  0.6109669365936851  0.2649627225670306  1.0000
  C   C7        1.0  0.6667844983794851  0.8939613144905776  0.490103325973574  1.0000
  C   C8        1.0  0.33321550148310436  0.10603868565133658  0.5098966746245047  1.0000
  C   C9        1.0  0.2257024496395629  0.31270108556870374  0.8321063689538493  1.0000
  C   C10       1.0  0.7742975501334988  0.6872989144743775  0.16789363076931124  1.0000
  C   C11       1.0  0.9692244311513042  0.17746947576018354  0.7261820908226686  1.0000
  C   C12       1.0  0.030775569892298096  0.8225305243801561  0.27381790977467113  1.0000
  C   C13       1.0  0.5624156015746686  0.8612791073902039  0.3934666133611452  1.0000
  C   C14       1.0  0.4375843982879208  0.13872089275171035  0.6065333872369336  1.0000
  C   C15       1.0  0.45710983119876736  0.6783467937900606  0.5348609101369403  1.0000
  C   C16       1.0  0.5428901684210861  0.32165320528056585  0.4651390904584574  1.0000
  C   C17       1.0  0.36557387703541894  0.5655432680079421  0.5878674821349263  1.0000
  C   C18       1.0  0.6344261228271706  0.4344567321339722  0.4121325184631525  1.0000
  C   C19       1.0  0.08290194206829327  0.20568938479600396  0.8282489263868024  1.0000
  C   C20       1.0  0.9170980577047683  0.7943106152470772  0.17175107333635803  1.0000
  N   N1        1.0  0.8387205722753651  0.072349131674343  0.7376254919892961  1.0000
  N   N2        1.0  0.1612794274976965  0.9276508683687382  0.2623745077338644  1.0000
  N   N3        1.0  0.03566952717914632  0.1198924794908938  0.9136909901912821  1.0000
  N   N4        1.0  0.9643304725939151  0.8801075205521873  0.08630900953187831  1.0000
  S   S1        1.0  0.1905724711129542  0.46203310037651607  0.5177324743252407  1.0000
  S   S2        1.0  0.8094275286601074  0.5379668996665651  0.4822675253979197  1.0000
  S   S3        1.0  0.42026151715930743  0.5254141714777565  0.725898357025385  1.0000
  S   S4        1.0  0.579738482703282  0.4745858286641576  0.27410164357269384  1.0000
  S   S5        1.0  0.8653344890489287  0.017499927438634995  0.8654313188830358  1.0000
  S   S6        1.0  0.1346655119051457  0.9825000726028715  0.1345686808393855  1.0000
  S   S7        1.0  0.4046026817791833  0.7173608749112961  0.39539405675757877  1.0000
  S   S8        1.0  0.5953973179938783  0.28263912513178513  0.6046059429655817  1.0000
  S   S9        1.0  0.6295741960219847  0.7885369036412  0.6034522329529294  1.0000
  S   S10       1.0  0.3704258038406047  0.21146309650071415  0.39654776764514943  1.0000
  I   I1        1.0  0.11478373506738362  0.8166099744628589  0.6915898058151952  1.0000
  I   I2        1.0  0.8852162647952058  0.18339002567905538  0.3084101947828836  1.0000
  I   I3        1.0  0.8896009617538606  0.5923461302126618  0.8166318569445922  1.0000
  I   I4        1.0  0.11039903801920091  0.40765386983041935  0.18336814277856822  1.0000
  I   I5        1.0  0.6939899259718266  0.374690788361477  0.9283566533505117  1.0000
  I   I6        1.0  0.3060100738012349  0.6253092116816041  0.07164334637264884  1.0000
  I   I7        1.0  0.6045386685789507  0.05987653341723153  0.0995878298501963  1.0000
  I   I8        1.0  0.39546133119411087  0.9401234666258496  0.9004121698729642  1.0000
