data_image0
_chemical_formula_structural       H56C43N3O2Cl
_chemical_formula_sum              "H56 C43 N3 O2 Cl1"
_cell_length_a       8.572435411165817
_cell_length_b       10.266113554491742
_cell_length_c       11.006447946865139
_cell_angle_alpha    99.76394079945852
_cell_angle_beta     90.70136390461417
_cell_angle_gamma    102.97743902408378

_space_group_name_H-M_alt    "P 1"
_space_group_IT_number       1

loop_
  _space_group_symop_operation_xyz
  'x, y, z'

loop_
  _atom_site_type_symbol
  _atom_site_label
  _atom_site_symmetry_multiplicity
  _atom_site_fract_x
  _atom_site_fract_y
  _atom_site_fract_z
  _atom_site_occupancy
  H   H1        1.0  0.6323217896099237  0.7096978520396096  0.12285687267873513  1.0000
  H   H2        1.0  0.8528769042632854  0.6176449936576316  0.023621714612557666  1.0000
  H   H3        1.0  0.898830893659379  0.626774930206268  0.8020051097986683  1.0000
  H   H4        1.0  0.7325594718417106  0.734407170959738  0.6825024350587173  1.0000
  H   H5        1.0  0.000922030454986697  0.5222115378001638  0.40402483485196544  1.0000
  H   H6        1.0  0.9276219181920332  0.6165598274871684  0.22277330925165084  1.0000
  H   H7        1.0  0.902465433467022  0.8580401700453861  0.2504597392188799  1.0000
  H   H8        1.0  0.9521044470931616  0.0010648765911660954  0.45721278277830263  1.0000
  H   H9        1.0  0.8822950740174323  0.088997798782269  0.644837115517924  1.0000
  H   H10       1.0  0.934072688322146  0.16678876754333535  0.8902811073427033  1.0000
  H   H11       1.0  0.7959520607580136  0.973638369144714  0.027313239789077588  1.0000
  H   H12       1.0  0.6607386406293633  0.07621695970256896  0.20386667968980393  1.0000
  H   H13       1.0  0.8259878616626914  0.23910460187558277  0.3808261816467632  1.0000
  H   H14       1.0  0.11835045846401437  0.29552160918261405  0.37578522717066054  1.0000
  H   H15       1.0  0.2556320406937129  0.18875706401913422  0.19956985380024447  1.0000
  H   H16       1.0  0.20128661217570315  0.9351546219105339  0.2357211069166528  1.0000
  H   H17       1.0  0.4447707708572229  0.8092155172663681  0.21685536846931164  1.0000
  H   H18       1.0  0.4140557076375218  0.8696032739861549  0.8233028562196769  1.0000
  H   H19       1.0  0.018932826294365504  0.5548626155569967  0.6171281606315605  1.0000
  H   H20       1.0  0.13234150784496174  0.8263260878496539  0.7781099690507018  1.0000
  H   H21       1.0  0.5169892463689318  0.5152653694671374  0.6897845594947788  1.0000
  H   H22       1.0  0.6104935133042746  0.3928914189305382  0.6087043078131117  1.0000
  H   H23       1.0  0.28052195585067924  0.43487832980718216  0.5310848359062572  1.0000
  H   H24       1.0  0.3868006434078986  0.3221259151989949  0.4471364972996051  1.0000
  H   H25       1.0  0.5045896488048215  0.6310932478514429  0.5119197550992621  1.0000
  H   H26       1.0  0.6166724948718204  0.520661605406348  0.43524719734436434  1.0000
  H   H27       1.0  0.4853848609534556  0.6132727878622692  0.27862623139254844  1.0000
  H   H28       1.0  0.2943610281859952  0.5612903182854492  0.3381861882200885  1.0000
  H   H29       1.0  0.39430390152681555  0.43879142235964713  0.26361855399631406  1.0000
  H   H30       1.0  0.2914832611525134  0.10984951703901331  0.6922987842896305  1.0000
  H   H31       1.0  0.27666325191625607  0.17881067757823937  0.5579240715561007  1.0000
  H   H32       1.0  0.5771499046743734  0.10321774021854045  0.6549330381104785  1.0000
  H   H33       1.0  0.5706495282987558  0.17855037845179797  0.5231595765484774  1.0000
  H   H34       1.0  0.35917690448621165  0.9045758089802245  0.5587475807196496  1.0000
  H   H35       1.0  0.35429652124303157  0.9770171938623743  0.425038273745968  1.0000
  H   H36       1.0  0.5294990583719961  0.8091585045391211  0.39805816839136154  1.0000
  H   H37       1.0  0.6462401590267719  0.8974783089314633  0.5324508405525824  1.0000
  H   H38       1.0  0.6491145595985993  0.9743606819539119  0.39942713405870917  1.0000
  H   H39       1.0  0.21668164094342046  0.2782930052298056  0.8196037644576153  1.0000
  H   H40       1.0  0.16925143674392146  0.3286295670881487  0.6813891531632397  1.0000
  H   H41       1.0  0.3893124708938043  0.5328969584291359  0.8821542005696379  1.0000
  H   H42       1.0  0.27986675395344923  0.564395388898801  0.7575986707763982  1.0000
  H   H43       1.0  0.1337952720484915  0.6152072949919445  0.9330343613948344  1.0000
  H   H44       1.0  0.023506740107932595  0.4553833973641467  0.8563482439219916  1.0000
  H   H45       1.0  0.04962464291834093  0.45994090431521595  0.08601118197203884  1.0000
  H   H46       1.0  0.2610860837487845  0.5074304674879178  0.08268506671365962  1.0000
  H   H47       1.0  0.1542671979637644  0.3433565202604108  0.009941532942277096  1.0000
  H   H48       1.0  0.5601532277702986  0.4238806501028112  0.8612219043492361  1.0000
  H   H49       1.0  0.6415716990421029  0.30355263058929693  0.7650658031181018  1.0000
  H   H50       1.0  0.3753005312899375  0.23583321933621892  0.9464914157554963  1.0000
  H   H51       1.0  0.44502080714130277  0.11368779799903929  0.8425284329004099  1.0000
  H   H52       1.0  0.5959782839824784  0.12730255025787718  0.02196531302356445  1.0000
  H   H53       1.0  0.7289105233309249  0.22760251199193537  0.9368840180794132  1.0000
  H   H54       1.0  0.7569738996202299  0.35369678307352737  0.14758762203853235  1.0000
  H   H55       1.0  0.5471365904262384  0.32483656678024436  0.16018473421910334  1.0000
  H   H56       1.0  0.6437242287144378  0.4385858887135772  0.06539414709899216  1.0000
  C   C1        1.0  0.5878529399909074  0.7832735537575021  0.8337226626662059  1.0000
  C   C2        1.0  0.5571099165031405  0.7758793706106224  0.9598102148523872  1.0000
  C   C3        1.0  0.6543649084762244  0.7152207368764638  0.026312292267606056  1.0000
  C   C4        1.0  0.7776207568007021  0.6633306195770657  0.9711824129467513  1.0000
  C   C5        1.0  0.8050977938577134  0.6698215982851622  0.8469542767074222  1.0000
  C   C6        1.0  0.7116262796068233  0.7292609815144313  0.7790620999771802  1.0000
  C   C7        1.0  0.4293970597823006  0.8312982801150492  0.016601921069975274  1.0000
  C   C8        1.0  0.2311702926450574  0.9366119887708376  0.03296561371580719  1.0000
  C   C9        1.0  0.11262754783370034  0.0007877909076771595  0.0007573000605447242  1.0000
  C   C10       1.0  0.059117886880256966  0.9982016227005509  0.8775463629370123  1.0000
  C   C11       1.0  0.01305928371453313  0.9295121700021979  0.670721392703327  1.0000
  C   C12       1.0  0.003417108633047964  0.8448088728824814  0.5497445229594459  1.0000
  C   C13       1.0  0.02072762143140892  0.7084327543995445  0.5321465517433611  1.0000
  C   C14       1.0  0.9912915379430824  0.6275190876510645  0.4141762707376681  1.0000
  C   C15       1.0  0.9485806351555622  0.6806021628415235  0.3138023596599125  1.0000
  C   C16       1.0  0.9348271183506244  0.8157000119160852  0.3288599433944673  1.0000
  C   C17       1.0  0.9626767670071534  0.8958945449599269  0.4453667552076391  1.0000
  C   C18       1.0  0.9439892375228329  0.042407056933815766  0.7060384481449231  1.0000
  C   C19       1.0  0.9704196092716307  0.08300895352242257  0.8332710843299755  1.0000
  C   C20       1.0  0.03470317154826429  0.07268896019298639  0.10180654119703013  1.0000
  C   C21       1.0  0.866673424903174  0.04472036567764235  0.10340637939937872  1.0000
  C   C22       1.0  0.7912567938632091  0.10239473356884574  0.203148422540468  1.0000
  C   C23       1.0  0.8818483233666693  0.1925449814446047  0.3014607120407619  1.0000
  C   C24       1.0  0.04886423367208147  0.22411134186366138  0.2991964023613445  1.0000
  C   C25       1.0  0.12516750772937202  0.16440351060714348  0.20106442914919118  1.0000
  C   C26       1.0  0.26609521189318036  0.911290095178267  0.15420538927965796  1.0000
  C   C27       1.0  0.3890009925819544  0.8447592335656774  0.14391456418208895  1.0000
  C   C28       1.0  0.4932731472374144  0.4159063813497651  0.6290358618205746  1.0000
  C   C29       1.0  0.4013068940644248  0.4191064610529997  0.5115498015498595  1.0000
  C   C30       1.0  0.49355676527710646  0.533453805410657  0.4492255370509108  1.0000
  C   C31       1.0  0.4123161512598328  0.5370214916573817  0.32617864776427136  1.0000
  C   C32       1.0  0.3606050636157067  0.17287643154727117  0.6316375299629271  1.0000
  C   C33       1.0  0.49674944943576493  0.11237348185047039  0.5797850888511632  1.0000
  C   C34       1.0  0.4334043188133707  0.9710202882939832  0.5025240648339812  1.0000
  C   C35       1.0  0.571850322473234  0.9097033096015806  0.45517274231306415  1.0000
  C   C36       1.0  0.2592440832352724  0.3511020125019934  0.7585070677183825  1.0000
  C   C37       1.0  0.2768756965604818  0.496375472899085  0.8250571482847266  1.0000
  C   C38       1.0  0.13683916313835806  0.5073725113984346  0.909134657441289  1.0000
  C   C39       1.0  0.15124457560711238  0.45140067984480636  0.02772980249607249  1.0000
  C   C40       1.0  0.5320675205238538  0.319277776799993  0.8104000151023537  1.0000
  C   C41       1.0  0.4801087340507816  0.2173506338360059  0.8954981337475074  1.0000
  C   C42       1.0  0.61842771001785  0.223546373783759  0.9873375841117596  1.0000
  C   C43       1.0  0.6432240016223164  0.34190372504255584  0.09552868164405746  1.0000
  N   N1        1.0  0.3326147955135782  0.8843487137724537  0.9505263596987992  1.0000
  N   N2        1.0  0.08485688091888657  0.9080551594575098  0.7749803473663179  1.0000
  N   N3        1.0  0.4109025542126002  0.31495606547756033  0.7070721673713031  1.0000
  O   O1        1.0  0.4984549644762825  0.83929998418032  0.7651963417176934  1.0000
  O   O2        1.0  0.06392845163757127  0.6580326987936902  0.6305531588018111  1.0000
  Cl  Cl1       1.0  0.9056431801704047  0.36864118167036325  0.6061551114837498  1.0000
