data_image0
_chemical_formula_structural       H60C50N6O14
_chemical_formula_sum              "H60 C50 N6 O14"
_cell_length_a       7.974477374699803
_cell_length_b       11.647961509886509
_cell_length_c       13.009431104697502
_cell_angle_alpha    86.48137974286642
_cell_angle_beta     78.08779068787591
_cell_angle_gamma    78.87062008330406

_space_group_name_H-M_alt    "P 1"
_space_group_IT_number       1

loop_
  _space_group_symop_operation_xyz
  'x, y, z'

loop_
  _atom_site_type_symbol
  _atom_site_label
  _atom_site_symmetry_multiplicity
  _atom_site_fract_x
  _atom_site_fract_y
  _atom_site_fract_z
  _atom_site_occupancy
  H   H1        1.0  0.3330143181848917  0.14236847539537967  0.9828601744899365  1.0000
  H   H2        1.0  0.6669856820958383  0.8576315243826915  0.01713982573009495  1.0000
  H   H3        1.0  0.1441381190575926  0.25249682737886403  0.017113634828619332  1.0000
  H   H4        1.0  0.855861880978436  0.7475031732740776  0.9828863646053451  1.0000
  H   H5        1.0  0.28185096102220814  0.25608745911796893  0.8912680676651038  1.0000
  H   H6        1.0  0.7181490390215425  0.7439125415352925  0.1087319325365249  1.0000
  H   H7        1.0  0.6109986386555412  0.06365393080755095  0.023315725813458678  1.0000
  H   H8        1.0  0.38900136138048763  0.9363460698453907  0.9766842736205058  1.0000
  H   H9        1.0  0.7401764512540243  0.0314709257525238  0.8962987629134243  1.0000
  H   H10       1.0  0.2598235490267056  0.9685290740255473  0.1037012373066071  1.0000
  H   H11       1.0  0.5995605961425952  0.16836032955398397  0.9188866053736848  1.0000
  H   H12       1.0  0.4004394028558424  0.831639670226712  0.08111339501312934  1.0000
  H   H13       1.0  0.9291764441043885  0.5532672081780056  0.8527872558702831  1.0000
  H   H14       1.0  0.07082355616861931  0.44673279159974566  0.14721274358208403  1.0000
  H   H15       1.0  0.9185594977677459  0.5639304767849082  0.7163174009638533  1.0000
  H   H16       1.0  0.08144050227600494  0.43606952386835324  0.28368259923777533  1.0000
  H   H17       1.0  0.12258650164816522  0.5378739770903411  0.7553896255859479  1.0000
  H   H18       1.0  0.8774134986248429  0.4621260226874102  0.2446103738664193  1.0000
  H   H19       1.0  0.22385481923710873  0.929655286302878  0.7220901634631863  1.0000
  H   H20       1.0  0.7761451810436213  0.07034471347519305  0.27790983675684505  1.0000
  H   H21       1.0  0.029042473028723953  0.0861616124729487  0.07586664689532885  1.0000
  H   H22       1.0  0.9709575272520059  0.9138383873051226  0.9241333533247025  1.0000
  H   H23       1.0  0.569401309087529  0.3744485340992759  0.11074548603114269  1.0000
  H   H24       1.0  0.430598691185479  0.6255514656784753  0.8892545134212245  1.0000
  H   H25       1.0  0.9232825070686688  0.1633894471514151  0.8099802329740371  1.0000
  H   H26       1.0  0.07671749296735982  0.8366105535015266  0.19001976645992727  1.0000
  H   H27       1.0  0.8952378713065223  0.3816478835777021  0.9347568100763445  1.0000
  H   H28       1.0  0.10476212897420763  0.6183521162003691  0.06524319014368689  1.0000
  H   H29       1.0  0.12582525272011108  0.35246637875757614  0.5227190495254174  1.0000
  H   H30       1.0  0.8741747473236395  0.6475336218956854  0.4772809506762111  1.0000
  H   H31       1.0  0.11575744376876386  0.743087493768691  0.6974079824947653  1.0000
  H   H32       1.0  0.8842425565119663  0.2569125060093801  0.30259201772526606  1.0000
  H   H33       1.0  0.17161426936872193  0.6135775118767485  0.5437601768990166  1.0000
  H   H34       1.0  0.8283857296297156  0.38642248790394734  0.4562398234877976  1.0000
  H   H35       1.0  0.5786415812880402  0.8041535180348105  0.3962191192981284  1.0000
  H   H36       1.0  0.4213584189926898  0.19584648174326066  0.6037808809219029  1.0000
  H   H37       1.0  0.4963237622563631  0.9286104179481756  0.5551322809541396  1.0000
  H   H38       1.0  0.5036762380243669  0.07138958182989553  0.4448677192658918  1.0000
  H   H39       1.0  0.35211688893371085  0.46865896567712145  0.4554885675742647  1.0000
  H   H40       1.0  0.6478831100647267  0.5313410341035745  0.5445114328125494  1.0000
  H   H41       1.0  0.4341836682255609  0.34041124268947115  0.3015687984189925  1.0000
  H   H42       1.0  0.5658163320474471  0.65958875708828  0.6984312010333747  1.0000
  H   H43       1.0  0.5626948587534063  0.6123680772705662  0.09873299634857591  1.0000
  H   H44       1.0  0.4373051415273237  0.3876319225075049  0.9012670038714555  1.0000
  H   H45       1.0  0.5007040910833014  0.7514074153394632  0.2463628741468008  1.0000
  H   H46       1.0  0.4992959091897064  0.24859258443828816  0.7536371253055665  1.0000
  H   H47       1.0  0.8646266027835476  0.864624657425753  0.4990787458241479  1.0000
  H   H48       1.0  0.13537339749718236  0.13537534235231805  0.5009212543958835  1.0000
  H   H49       1.0  0.7474150978218199  0.749067722921656  0.7613713147885764  1.0000
  H   H50       1.0  0.25258490093963815  0.2509322777342304  0.2386286855798349  1.0000
  H   H51       1.0  0.6256155053169307  0.8902518711051502  0.8037930173339211  1.0000
  H   H52       1.0  0.3743844949637994  0.10974812867292084  0.19620698288611033  1.0000
  H   H53       1.0  0.8523550046343802  0.8495454609872185  0.8105451963012491  1.0000
  H   H54       1.0  0.14764499563862765  0.15045453879053264  0.189454803151118  1.0000
  H   H55       1.0  0.8448729336240225  0.03514448037751296  0.5644567458578782  1.0000
  H   H56       1.0  0.15512706665670759  0.9648555194005582  0.4355432543621533  1.0000
  H   H57       1.0  0.9221427485462842  0.025929527603628797  0.6850294012304803  1.0000
  H   H58       1.0  0.07785725173444581  0.9740704721744424  0.31497059898955104  1.0000
  H   H59       1.0  0.6929822052920088  0.06465365813206665  0.6859649935175028  1.0000
  H   H60       1.0  0.30701779498872134  0.9353463416460044  0.3140350067025284  1.0000
  C   C1        1.0  0.2311800375456655  0.05131113629118973  0.8200495970530285  1.0000
  C   C2        1.0  0.7688199627350646  0.9486888634868814  0.17995040316700278  1.0000
  C   C3        1.0  0.11924484782120011  0.12561879217069788  0.9097770682171046  1.0000
  C   C4        1.0  0.8807551522225506  0.8743812084825636  0.09022293198452395  1.0000
  C   C5        1.0  0.0002709695598045576  0.06508560479215783  0.0013913904355664732  1.0000
  C   C6        1.0  0.9997290307209254  0.9349143949859132  0.9986086097844649  1.0000
  C   C7        1.0  0.8340131695616546  0.15204163705413318  0.9804318822246304  1.0000
  C   C8        1.0  0.16598683071907547  0.847958362723938  0.01956811799540102  1.0000
  C   C9        1.0  0.9474286721978556  0.20066656901978114  0.8796135505949442  1.0000
  C   C10       1.0  0.05257132807515233  0.79933343075797  0.12038644885742306  1.0000
  C   C11       1.0  0.9423733229606059  0.32860889509438806  0.864247044956485  1.0000
  C   C12       1.0  0.057626677320124296  0.671391104683683  0.13575295526354633  1.0000
  C   C13       1.0  0.9958718498653666  0.3883509795530765  0.7747014158451385  1.0000
  C   C14       1.0  0.00412815017838422  0.6116490211001849  0.22529858435649017  1.0000
  C   C15       1.0  0.06293363755137364  0.32791381963094307  0.673050444964856  1.0000
  C   C16       1.0  0.9370663627216343  0.672086180146808  0.3269495544875113  1.0000
  C   C17       1.0  0.7659246923060594  0.2463532674688689  0.06259093419865366  1.0000
  C   C18       1.0  0.23407530797467077  0.7536467323092021  0.9374090660213777  1.0000
  C   C19       1.0  0.22622174803111056  0.19853916706222857  0.953012660728403  1.0000
  C   C20       1.0  0.7737782522496194  0.8014608327158427  0.046987339491628345  1.0000
  C   C21       1.0  0.6876274281776433  0.100598906872017  0.9536890999348693  1.0000
  C   C22       1.0  0.3123725721030868  0.8994010929060541  0.04631090028516205  1.0000
  C   C23       1.0  0.9901812041396522  0.5179059240105118  0.7748969324126865  1.0000
  C   C24       1.0  0.009818796133355769  0.4820940757672394  0.22510306703968072  1.0000
  C   C25       1.0  0.21362760017189433  0.7548844243018474  0.627542920374494  1.0000
  C   C26       1.0  0.7863723998718563  0.2451155763514142  0.3724570798271346  1.0000
  C   C27       1.0  0.24814083576363286  0.6818590351097584  0.5422043115764918  1.0000
  C   C28       1.0  0.7518591645170971  0.3181409646683126  0.4577956886435395  1.0000
  C   C29       1.0  0.3796473695670529  0.6985117315945649  0.4556096308651129  1.0000
  C   C30       1.0  0.6203526304689756  0.3014882690583766  0.5443903685688516  1.0000
  C   C31       1.0  0.472172206972144  0.7885808088666422  0.4597903317701903  1.0000
  C   C32       1.0  0.5278277933008638  0.21141919091110917  0.5402096676821769  1.0000
  C   C33       1.0  0.427717479942806  0.8578777174002554  0.5482112308741255  1.0000
  C   C34       1.0  0.5722825190556315  0.14212228238044036  0.4517887695126886  1.0000
  C   C35       1.0  0.42104530174979143  0.6213918097568556  0.3644874499251599  1.0000
  C   C36       1.0  0.5789546985309386  0.3786081900212155  0.6355125502948713  1.0000
  C   C37       1.0  0.4002025048171589  0.504399619789982  0.3782390155482148  1.0000
  C   C38       1.0  0.5997974952265919  0.49560038086327934  0.6217609846534139  1.0000
  C   C39       1.0  0.44527454590347915  0.4322926877359532  0.2919467466517914  1.0000
  C   C40       1.0  0.5547254543772508  0.567707312042118  0.7080532535682399  1.0000
  C   C41       1.0  0.519511729082837  0.5836708478831121  0.1796401238228908  1.0000
  C   C42       1.0  0.480488271197893  0.4163291518949591  0.8203598763971406  1.0000
  C   C43       1.0  0.48278672846875786  0.6610821806433995  0.2621601254301308  1.0000
  C   C44       1.0  0.5172132718119723  0.3389178191346715  0.7378398747899004  1.0000
  C   C45       1.0  0.8303529740018935  0.8203765709748597  0.5759543632748687  1.0000
  C   C46       1.0  0.16964702627883657  0.17962342880321136  0.4240456369451627  1.0000
  C   C47       1.0  0.7530628665226914  0.8415864363564862  0.7654703061056277  1.0000
  C   C48       1.0  0.24693713375803855  0.15841356342158502  0.23452969411440372  1.0000
  C   C49       1.0  0.8164660703604247  0.010749832199658802  0.6481465124879076  1.0000
  C   C50       1.0  0.18353392992030526  0.9892501675784123  0.3518534877321238  1.0000
  N   N1        1.0  0.30080527870101104  0.8421832099080614  0.6303477733150161  1.0000
  N   N2        1.0  0.699194721579719  0.15781678987000966  0.3696522269050152  1.0000
  N   N3        1.0  0.5031598256563712  0.4708685521346917  0.19415586249045408  1.0000
  N   N4        1.0  0.49684017462435887  0.5291314476433794  0.8058441377295774  1.0000
  N   N5        1.0  0.8003787106831698  0.8880544974129017  0.6592679463709022  1.0000
  N   N6        1.0  0.19962128936058088  0.1119455032403599  0.3407320538307264  1.0000
  O   O1        1.0  0.14401768447901941  0.9836101735656867  0.7814469852793859  1.0000
  O   O2        1.0  0.8559823142824388  0.01638982709019947  0.2185530150890255  1.0000
  O   O3        1.0  0.3880117931222912  0.0526264788359133  0.7868526501881454  1.0000
  O   O4        1.0  0.6119882069137373  0.9473735218170283  0.21314734924581918  1.0000
  O   O5        1.0  0.8522881225285858  0.2712849507493929  0.12369006653303269  1.0000
  O   O6        1.0  0.14771187751516515  0.7287150499038685  0.876309933668596  1.0000
  O   O7        1.0  0.6065080507185034  0.30489710830742306  0.05732020505310046  1.0000
  O   O8        1.0  0.39349194955450456  0.6951028914703281  0.9426797943992666  1.0000
  O   O9        1.0  0.0951423416084435  0.22021673739259762  0.6634177612274815  1.0000
  O   O10       1.0  0.9048576571530147  0.7797832632632887  0.33658223914092983  1.0000
  O   O11       1.0  0.08661108724001937  0.40156148377815154  0.5900019167659811  1.0000
  O   O12       1.0  0.9133889130329886  0.5984385159995996  0.409998082686386  1.0000
  O   O13       1.0  0.8206053315082412  0.7135960317986794  0.5813934347559699  1.0000
  O   O14       1.0  0.17939466877248886  0.2864039679793919  0.41860656546406144  1.0000
