data_image0
_chemical_formula_structural       H48C96O12Br8
_chemical_formula_sum              "H48 C96 O12 Br8"
_cell_length_a       13.396901210007853
_cell_length_b       9.657457053343187
_cell_length_c       14.138998383597677
_cell_angle_alpha    90.0
_cell_angle_beta     98.43838288838317
_cell_angle_gamma    90.0

_space_group_name_H-M_alt    "P 1"
_space_group_IT_number       1

loop_
  _space_group_symop_operation_xyz
  'x, y, z'

loop_
  _atom_site_type_symbol
  _atom_site_label
  _atom_site_symmetry_multiplicity
  _atom_site_fract_x
  _atom_site_fract_y
  _atom_site_fract_z
  _atom_site_occupancy
  H   H1        1.0  0.616965579538002  0.6960597590928911  0.24237971454849389  1.0000
  H   H2        1.0  0.11696558001112074  0.8039402409055785  0.742379714229312  1.0000
  H   H3        1.0  0.38303442024278295  0.3039402405609322  0.7576202860745229  1.0000
  H   H4        1.0  0.8830344204002724  0.19605975978371404  0.2576202856744706  1.0000
  H   H5        1.0  0.3359086233851305  0.3519290276132717  0.24697149221708048  1.0000
  H   H6        1.0  0.8359086232755231  0.1480709716959053  0.746971492528589  1.0000
  H   H7        1.0  0.6640913770262626  0.6480709720405515  0.7530285076867022  1.0000
  H   H8        1.0  0.16409137725103307  0.851929027957918  0.2530285080901854  1.0000
  H   H9        1.0  0.6006250157402667  0.06856020030353543  0.11811410557590521  1.0000
  H   H10       1.0  0.10062501546761442  0.4314398000411109  0.618114105260966  1.0000
  H   H11       1.0  0.3993749847862893  0.9314397993502878  0.8818858950428692  1.0000
  H   H12       1.0  0.8993749841980077  0.5685602006481817  0.38188589464705924  1.0000
  H   H13       1.0  0.7244170777452679  0.25932845014651307  0.1279593062626244  1.0000
  H   H14       1.0  0.2244170782183866  0.24067155019813316  0.6279593059434426  1.0000
  H   H15       1.0  0.2755829220355171  0.7406715495073102  0.8720406943603923  1.0000
  H   H16       1.0  0.7755829221930066  0.7593284504911594  0.37204069396034006  1.0000
  H   H17       1.0  0.7647044424806637  0.5091598381271375  0.10122155661343428  1.0000
  H   H18       1.0  0.26470444306894525  0.990840161871332  0.601221557009244  1.0000
  H   H19       1.0  0.23529555718495845  0.4908401615266857  0.898778443294591  1.0000
  H   H20       1.0  0.7352955573424478  0.009159837782491298  0.3987784428945386  1.0000
  H   H21       1.0  0.7100948588920317  0.7381470961377185  0.04030969303201893  1.0000
  H   H22       1.0  0.21009485948031337  0.7618529038607511  0.5403096934278288  1.0000
  H   H23       1.0  0.28990514077359036  0.26185290351610485  0.9596903068760063  1.0000
  H   H24       1.0  0.7899051409310798  0.2381470957930721  0.459690306475954  1.0000
  H   H25       1.0  0.42317237633369587  0.10581015420060882  0.041790266473328126  1.0000
  H   H26       1.0  0.9231723761089254  0.39418984614403746  0.541790266069845  1.0000
  H   H27       1.0  0.5768276234470892  0.8941898454532146  0.9582097341496887  1.0000
  H   H28       1.0  0.07682762355669664  0.6058101545452551  0.4582097338381803  1.0000
  H   H29       1.0  0.5332413729320041  0.04143585395096033  0.5899560594690889  1.0000
  H   H30       1.0  0.03324137315677456  0.4585641463936859  0.08995605987257199  1.0000
  H   H31       1.0  0.466758626733618  0.9585641467383321  0.41004394043893644  1.0000
  H   H32       1.0  0.9667586265088475  0.5414358532601373  0.9100439400354533  1.0000
  H   H33       1.0  0.6857991756381238  0.18861980332280212  0.5966689959597954  1.0000
  H   H34       1.0  0.1857991758628941  0.31138019702184416  0.09666899636327854  1.0000
  H   H35       1.0  0.3142008240274984  0.8113801963310212  0.4033310039482299  1.0000
  H   H36       1.0  0.814200824663662  0.6886198036674483  0.9033310042554958  1.0000
  H   H37       1.0  0.763129294432278  0.4195468628666981  0.576599186233635  1.0000
  H   H38       1.0  0.2631292937961144  0.0804531374779482  0.07659918592636905  1.0000
  H   H39       1.0  0.2368707060942781  0.5804531367871252  0.4234008143851393  1.0000
  H   H40       1.0  0.7368707058695078  0.9195468632113444  0.9234008139816562  1.0000
  H   H41       1.0  0.7453002185500802  0.6637361351538195  0.5288527465822526  1.0000
  H   H42       1.0  0.24530021865968762  0.8362638648446502  0.028852746270744096  1.0000
  H   H43       1.0  0.2546997818613131  0.3362638655354731  0.47114725332153023  1.0000
  H   H44       1.0  0.7546997817517056  0.16373613480917315  0.9711472536330387  1.0000
  H   H45       1.0  0.3640578969532198  0.13670058098192467  0.532716015321952  1.0000
  H   H46       1.0  0.864057896480101  0.3632994193627216  0.03271601564113361  1.0000
  H   H47       1.0  0.6359421034581734  0.8632994197073679  0.46728398458183085  1.0000
  H   H48       1.0  0.13594210318552102  0.6367005802911017  0.9672839842668917  1.0000
  C   C1        1.0  0.4974173675664402  0.3890791198185278  0.27344352326023347  1.0000
  C   C2        1.0  0.9974173673416699  0.11092088052611851  0.7734435228567503  1.0000
  C   C3        1.0  0.5025826329601158  0.6109208808707648  0.7265564773585409  1.0000
  C   C4        1.0  0.0025826330697233495  0.8890791191277048  0.22655647704703244  1.0000
  C   C5        1.0  0.5756069713522811  0.4844193077079743  0.27237784695929335  1.0000
  C   C6        1.0  0.07560697107962877  0.015580691601202705  0.7723778466443542  1.0000
  C   C7        1.0  0.4243930290591121  0.515580691945849  0.7276221529444895  1.0000
  C   C8        1.0  0.9243930293317644  0.9844193080526206  0.22762215325942864  1.0000
  C   C9        1.0  0.5568519658417351  0.6207762122974835  0.24416844228033593  1.0000
  C   C10       1.0  0.05685196631485381  0.879223787700986  0.7441684419611543  1.0000
  C   C11       1.0  0.44314803393905  0.3792237873563397  0.7558315583426809  1.0000
  C   C12       1.0  0.9431480340965394  0.12077621298830654  0.2558315579426285  1.0000
  C   C13       1.0  0.45598556741222085  0.6593056914289687  0.21650010375374618  1.0000
  C   C14       1.0  0.9559855671874503  0.840694308569501  0.716500103350263  1.0000
  C   C15       1.0  0.5440144322534012  0.34069430822485464  0.7834998961542791  1.0000
  C   C16       1.0  0.04401443247817168  0.15930569108432238  0.28349989655776225  1.0000
  C   C17       1.0  0.3772098836425954  0.5622510480769148  0.21714335298792073  1.0000
  C   C18       1.0  0.8772098841635959  0.9377489519215548  0.7171433525801951  1.0000
  C   C19       1.0  0.6227901160230267  0.43774895261237773  0.7828566469201045  1.0000
  C   C20       1.0  0.12279011624779712  0.06225104773226852  0.2828566473235876  1.0000
  C   C21       1.0  0.397383047698964  0.4253271536504583  0.24568759871255494  1.0000
  C   C22       1.0  0.8973830475893564  0.07467284565871869  0.7456875990240632  1.0000
  C   C23       1.0  0.6026169519666581  0.574672846003365  0.7543124011954703  1.0000
  C   C24       1.0  0.1026169520762656  0.9253271539951047  0.25431240088396195  1.0000
  C   C25       1.0  0.5417370660535834  0.25565076151649174  0.3074816960966775  1.0000
  C   C26       1.0  0.04173706652670208  0.24434923882815457  0.807481695777496  1.0000
  C   C27       1.0  0.4582629336120388  0.7443492391728008  0.6925183038113477  1.0000
  C   C28       1.0  0.9582629338846912  0.7556507608256687  0.19251830412628693  1.0000
  C   C29       1.0  0.6714438837851632  0.41154808435043655  0.303185318586947  1.0000
  C   C30       1.0  0.1714438835125108  0.08845191599420975  0.8031853182720078  1.0000
  C   C31       1.0  0.32855611599562184  0.5884519153033868  0.6968146820360698  1.0000
  C   C32       1.0  0.8285561161531113  0.9115480846950829  0.19681468163601742  1.0000
  C   C33       1.0  0.5766819428579665  0.16984740195475873  0.08943349925723339  1.0000
  C   C34       1.0  0.07668194258531418  0.33015259735441826  0.5894334989422942  1.0000
  C   C35       1.0  0.42331805755342666  0.8301525976990646  0.9105665006465494  1.0000
  C   C36       1.0  0.923318057080308  0.669847402299405  0.41056650096573105  1.0000
  C   C37       1.0  0.646739040018641  0.277619745569758  0.09494546163874194  1.0000
  C   C38       1.0  0.14673903974598862  0.22238025373941903  0.5949454613238027  1.0000
  C   C39       1.0  0.3532609596469811  0.7223802540840654  0.9050545382692833  1.0000
  C   C40       1.0  0.8532609599196335  0.7776197459144042  0.4050545385842225  1.0000
  C   C41       1.0  0.6184199415787356  0.4102136098683017  0.059465331833988444  1.0000
  C   C42       1.0  0.11841994130608327  0.08978639047634464  0.5594653315190492  1.0000
  C   C43       1.0  0.38158005808688644  0.5897863897855217  0.9405346680740369  1.0000
  C   C44       1.0  0.8815800583595389  0.910213610212948  0.4405346683889761  1.0000
  C   C45       1.0  0.6873916484601981  0.5243305998701868  0.06604655181242679  1.0000
  C   C46       1.0  0.18739164893331678  0.9756694001282828  0.5660465514932451  1.0000
  C   C47       1.0  0.31260835132058695  0.4756693997836365  0.93395344881059  1.0000
  C   C48       1.0  0.8126083514780764  0.02433059952554055  0.4339534484105377  1.0000
  C   C49       1.0  0.656879228143104  0.6523614617389403  0.032300199059612233  1.0000
  C   C50       1.0  0.15687922787045144  0.8476385382595293  0.5323001987446729  1.0000
  C   C51       1.0  0.3431207722682893  0.3476385389503523  0.9676998008441705  1.0000
  C   C52       1.0  0.8431207725409416  0.15236146139429396  0.4676998011591098  1.0000
  C   C53       1.0  0.5553241259258612  0.6778926464636649  0.988398012173004  1.0000
  C   C54       1.0  0.05532412603546864  0.8221073535348047  0.4883980118614956  1.0000
  C   C55       1.0  0.444675873739761  0.32210735422562764  0.011601987735021259  1.0000
  C   C56       1.0  0.9446758743759245  0.17789264611901864  0.5116019880422872  1.0000
  C   C57       1.0  0.47699334481966543  0.19140882633902934  0.04779167815141251  1.0000
  C   C58       1.0  0.976993344594895  0.3085911740056169  0.5477916777479294  1.0000
  C   C59       1.0  0.5230066555917278  0.8085911743502632  0.9522083217523701  1.0000
  C   C60       1.0  0.023006655070727095  0.6914088256482063  0.4522083221600959  1.0000
  C   C61       1.0  0.5157571128217306  0.43333002330580356  0.017706115565500172  1.0000
  C   C62       1.0  0.015757112664241218  0.06666997703884273  0.5177061159655526  1.0000
  C   C63       1.0  0.48424288684389144  0.566669977383489  0.9822938843425251  1.0000
  C   C64       1.0  0.9842428871165438  0.9333300226149805  0.48229388465746426  1.0000
  C   C65       1.0  0.5259976853904607  0.14926045977092844  0.567840248763962  1.0000
  C   C66       1.0  0.025997684754297038  0.35073953953824855  0.06784024845669609  1.0000
  C   C67       1.0  0.4740023151360954  0.8507395398828947  0.43215975185481226  1.0000
  C   C68       1.0  0.9740023149113249  0.6492604601155747  0.9321597514513291  1.0000
  C   C69       1.0  0.6114612119655707  0.23241921528638632  0.5721243878975428  1.0000
  C   C70       1.0  0.11146121207517824  0.26758078505826  0.07212438758603448  1.0000
  C   C71       1.0  0.3885387878152142  0.7675807843674369  0.4278756127254739  1.0000
  C   C72       1.0  0.8885387875904439  0.7324192156310325  0.9278756123219909  1.0000
  C   C73       1.0  0.6030827034117516  0.37262203084343565  0.5456584492710739  1.0000
  C   C74       1.0  0.10308270352135923  0.12737796950121064  0.045658448959565445  1.0000
  C   C75       1.0  0.3969172971148044  0.6273779688103877  0.4543415513477005  1.0000
  C   C76       1.0  0.8969172968900341  0.872622031188082  0.9543415509442175  1.0000
  C   C77       1.0  0.6888018428856245  0.46207246227983023  0.5503564154747386  1.0000
  C   C78       1.0  0.1888018431103949  0.03792753806481605  0.050356415878221754  1.0000
  C   C79       1.0  0.3111981575257687  0.5379275384094623  0.4496435844290442  1.0000
  C   C80       1.0  0.8111981573009983  0.9620724615890072  0.949643584025561  1.0000
  C   C81       1.0  0.6787943588906526  0.598023913344838  0.5242190594485886  1.0000
  C   C82       1.0  0.1787943590002602  0.9019760866536317  0.024219059137080112  1.0000
  C   C83       1.0  0.32120564077496944  0.40197608630898535  0.47578094045943675  1.0000
  C   C84       1.0  0.8212056406653618  0.09802391300019167  0.975780940770945  1.0000
  C   C85       1.0  0.5819660159716543  0.6572931471440038  0.4911816255721158  1.0000
  C   C86       1.0  0.08196601581416478  0.8427068528544659  0.9911816259721682  1.0000
  C   C87       1.0  0.418033984439739  0.3427068525098196  0.508818374331667  1.0000
  C   C88       1.0  0.9180339838514573  0.15729314783482673  0.008818373935857141  1.0000
  C   C89       1.0  0.4303364985295792  0.20324941950640094  0.5366990447172869  1.0000
  C   C90       1.0  0.9303364979412976  0.29675058083824535  0.036699044321477116  1.0000
  C   C91       1.0  0.5696635019969769  0.7967505801474224  0.46330095590148734  1.0000
  C   C92       1.0  0.06966350172432449  0.7032494198510472  0.9633009555865482  1.0000
  C   C93       1.0  0.5052582269688359  0.42904398508980435  0.5134921129263269  1.0000
  C   C94       1.0  0.005258227078443418  0.07095601525484194  0.013492112614818474  1.0000
  C   C95       1.0  0.49474177269678615  0.570956014564019  0.4865078869816984  1.0000
  C   C96       1.0  0.9947417725871788  0.9290439854344505  0.9865078872932068  1.0000
  O   O1        1.0  0.5033281518338454  0.1453154450750763  0.3205880476406867  1.0000
  O   O2        1.0  0.0033281516763559818  0.35468455526957  0.820588048040739  1.0000
  O   O3        1.0  0.4966718485775478  0.854684554578747  0.679411952263096  1.0000
  O   O4        1.0  0.9966718487350372  0.6453154454197225  0.17941195186304373  1.0000
  O   O5        1.0  0.7583500533826911  0.44883255250920007  0.3095875059154688  1.0000
  O   O6        1.0  0.2583500538558099  0.051167446799976986  0.8095875055962871  1.0000
  O   O7        1.0  0.2416499463980939  0.5511674471446233  0.6904124947075481  1.0000
  O   O8        1.0  0.7416499465555834  0.9488325528538464  0.1904124943074957  1.0000
  O   O9        1.0  0.6471178741107457  0.274002655707794  0.32560520491383155  1.0000
  O   O10       1.0  0.14711787383809324  0.22599734463685225  0.8256052045988923  1.0000
  O   O11       1.0  0.3528821264158105  0.7259973439460293  0.6743947957049428  1.0000
  O   O12       1.0  0.8528821265732999  0.7740026560524402  0.17439479530489038  1.0000
  Br  Br1       1.0  0.4290367106206662  0.8447620450122325  0.18083243864572965  1.0000
  Br  Br2       1.0  0.9290367103958959  0.6552379549862369  0.6808324382422466  1.0000
  Br  Br3       1.0  0.570963289790727  0.15523795567705997  0.8191675612580532  1.0000
  Br  Br4       1.0  0.0709632892697263  0.34476204466758625  0.31916756166577875  1.0000
  Br  Br5       1.0  0.2402910738214002  0.6109346795342498  0.18316110832073568  1.0000
  Br  Br6       1.0  0.7402910743424008  0.8890653204642197  0.68316110791301  1.0000
  Br  Br7       1.0  0.7597089259593848  0.3890653211550428  0.816838892302281  1.0000
  Br  Br8       1.0  0.2597089260689923  0.11093467918960351  0.3168388919907727  1.0000
