data_image0
_chemical_formula_structural       H60C66N4O12
_chemical_formula_sum              "H60 C66 N4 O12"
_cell_length_a       4.891185124081506
_cell_length_b       13.570881299616667
_cell_length_c       20.260531506206608
_cell_angle_alpha    90.0
_cell_angle_beta     96.78173833799248
_cell_angle_gamma    90.0

_space_group_name_H-M_alt    "P 1"
_space_group_IT_number       1

loop_
  _space_group_symop_operation_xyz
  'x, y, z'

loop_
  _atom_site_type_symbol
  _atom_site_label
  _atom_site_symmetry_multiplicity
  _atom_site_fract_x
  _atom_site_fract_y
  _atom_site_fract_z
  _atom_site_occupancy
  H   H1        1.0  0.31325000451001683  0.796879754618845  0.1542751301020599  1.0000
  H   H2        1.0  0.6867499941167411  0.2968797546047215  0.8457248700485277  1.0000
  H   H3        1.0  0.8388072906231581  0.7281149743958861  0.06078375807753002  1.0000
  H   H4        1.0  0.16119270798983537  0.22811497438176281  0.9392162415791058  1.0000
  H   H5        1.0  0.28167563973906556  0.600941848944649  0.13407660712961014  1.0000
  H   H6        1.0  0.7183243609465464  0.10094184893052556  0.8659233930763716  1.0000
  H   H7        1.0  0.3604831690871031  0.5128430878101181  0.03919990926309567  1.0000
  H   H8        1.0  0.6395168315985088  0.012843087795994737  0.9608000909428862  1.0000
  H   H9        1.0  0.025676514422028004  0.5396521573147108  0.9968507205283249  1.0000
  H   H10       1.0  0.9743234862498193  0.0396521573005874  0.003149279183705121  1.0000
  H   H11       1.0  0.41058207313856404  0.4893613401649595  0.9378468695729134  1.0000
  H   H12       1.0  0.5894179275332833  0.989361340179083  0.06215313013911666  1.0000
  H   H13       1.0  0.7067702812827275  0.4671638709402815  0.8504948413551318  1.0000
  H   H14       1.0  0.2932297173440305  0.9671638709544049  0.1495051587954559  1.0000
  H   H15       1.0  0.9553508175193025  0.6101130403545625  0.8074981066352312  1.0000
  H   H16       1.0  0.04464918110745544  0.11011304034043906  0.1925018935153564  1.0000
  H   H17       1.0  0.5994464351975443  0.800770926373585  0.9443412129185786  1.0000
  H   H18       1.0  0.40055356547430293  0.3007709263594617  0.055658786793451306  1.0000
  H   H19       1.0  0.3971080366799215  0.8918994715797783  0.8233197850695463  1.0000
  H   H20       1.0  0.6028919619468364  0.39189947156565497  0.17668021508104123  1.0000
  H   H21       1.0  0.11886352939376152  0.9189780504787316  0.760034383281682  1.0000
  H   H22       1.0  0.8811364712780856  0.41897805046460823  0.2399656164303479  1.0000
  H   H23       1.0  0.37471090106617316  0.8303730760888984  0.7444434936718293  1.0000
  H   H24       1.0  0.625289099605674  0.3303730760747752  0.25555650604020064  1.0000
  H   H25       1.0  0.6536887619498944  0.8787786066876043  0.2685449310524254  1.0000
  H   H26       1.0  0.3463112387357175  0.37877860667348096  0.7314550691535564  1.0000
  H   H27       1.0  0.7192352487839626  0.9822506501752786  0.21881266070891628  1.0000
  H   H28       1.0  0.28076475188788463  0.4822506501611552  0.7811873390031137  1.0000
  H   H29       1.0  0.14067377310373472  0.020194761412270352  0.30152132566734247  1.0000
  H   H30       1.0  0.8593262255230233  0.5201947614263938  0.6984786744832452  1.0000
  H   H31       1.0  0.33681032924968685  0.8126667153378994  0.33584120010435753  1.0000
  H   H32       1.0  0.6631896714359251  0.31266671532377605  0.6641588001016242  1.0000
  H   H33       1.0  0.4112566482680588  0.7164314280955824  0.4404394545621635  1.0000
  H   H34       1.0  0.5887433503586991  0.21643142808145888  0.5595605455884242  1.0000
  H   H35       1.0  0.161179028721675  0.7587230565704561  0.5359554409922891  1.0000
  H   H36       1.0  0.8388209719639369  0.25872305655633265  0.4640445592136927  1.0000
  H   H37       1.0  0.8285468911745837  0.8992785649333418  0.5284027326162664  1.0000
  H   H38       1.0  0.1714531074521742  0.39927856491921837  0.4715972675343214  1.0000
  H   H39       1.0  0.5085257746409185  0.05069392730002234  0.4946512907182481  1.0000
  H   H40       1.0  0.49147422604469343  0.5506939273141457  0.5053487094877337  1.0000
  H   H41       1.0  0.25159346696706286  0.1927738163971633  0.44055154378740624  1.0000
  H   H42       1.0  0.748406533718549  0.6927738164112868  0.5594484564185754  1.0000
  H   H43       1.0  0.3166138564755729  0.2419318743943874  0.32548302201054513  1.0000
  H   H44       1.0  0.6833861442100391  0.7419318744085107  0.6745169781954367  1.0000
  H   H45       1.0  0.6442680140055547  0.15005279797543586  0.26271644455409354  1.0000
  H   H46       1.0  0.3557319866662925  0.6500527979895593  0.7372835551579364  1.0000
  H   H47       1.0  0.9143772431907234  0.4939377297618352  0.12177356386660862  1.0000
  H   H48       1.0  0.08562275749488854  0.9939377297759586  0.8782264363393731  1.0000
  H   H49       1.0  0.5997100865157922  0.4318181922470673  0.4206653009614684  1.0000
  H   H50       1.0  0.4002899141698198  0.9318181922611907  0.5793346992445134  1.0000
  H   H51       1.0  0.9280138871095519  0.5724455669816696  0.42396948912514526  1.0000
  H   H52       1.0  0.07198611357605994  0.07244556696754623  0.5760305110808366  1.0000
  H   H53       1.0  0.8865808042228494  0.6953958826731885  0.3329559563015832  1.0000
  H   H54       1.0  0.11341919646276252  0.19539588265906518  0.6670440439043986  1.0000
  H   H55       1.0  0.5179595615271501  0.67851927496117  0.23774789326596626  1.0000
  H   H56       1.0  0.48204043914469724  0.17851927494704653  0.7622521064460637  1.0000
  H   H57       1.0  0.17913855052796934  0.5418303703096793  0.23607915920464323  1.0000
  H   H58       1.0  0.8208614480987886  0.0418303702955559  0.7639208409459445  1.0000
  H   H59       1.0  0.22032682238616758  0.4180206211191488  0.3277359009100708  1.0000
  H   H60       1.0  0.7796731782856796  0.9180206211332722  0.6722640988019591  1.0000
  C   C1        1.0  0.05562297304998948  0.7179631657580867  0.08121742097505116  1.0000
  C   C2        1.0  0.9443770276356225  0.21796316574396332  0.9187825792309305  1.0000
  C   C3        1.0  0.10772405681810981  0.6086124620538316  0.09441347175416752  1.0000
  C   C4        1.0  0.892275943867502  0.10861246203970812  0.9055865284518144  1.0000
  C   C5        1.0  0.20163313364671648  0.5696741058532709  0.0294964960997613  1.0000
  C   C6        1.0  0.7983668670388955  0.06967410583914756  0.9705035041062205  1.0000
  C   C7        1.0  0.23687165072339803  0.7443026872753884  0.02700453287172401  1.0000
  C   C8        1.0  0.7631283479033599  0.244302687261265  0.9729954672788637  1.0000
  C   C9        1.0  0.4811747202967937  0.6472630034902832  0.9478806409853792  1.0000
  C   C10       1.0  0.5188252803888181  0.14726300347615973  0.05211935922060259  1.0000
  C   C11       1.0  0.5134874179830512  0.5534394940299237  0.9201470352076828  1.0000
  C   C12       1.0  0.486512582688796  0.053439494015800226  0.07985296450434715  1.0000
  C   C13       1.0  0.6834437808122834  0.5405863037212789  0.8703286653939709  1.0000
  C   C14       1.0  0.3165562198733285  0.04058630370715557  0.12967133481201074  1.0000
  C   C15       1.0  0.8225924427147339  0.6198821524021157  0.8464013961492738  1.0000
  C   C16       1.0  0.17740755795711338  0.1198821523879923  0.15359860356275618  1.0000
  C   C17       1.0  0.7895505846223793  0.7135820862476735  0.8734097861816541  1.0000
  C   C18       1.0  0.21044941399061406  0.21358208623355016  0.12659021347498184  1.0000
  C   C19       1.0  0.6207543278247862  0.7277199882574287  0.9238174112664699  1.0000
  C   C20       1.0  0.379245672847061  0.2277199882433054  0.07618258844556008  1.0000
  C   C21       1.0  0.9324464394857462  0.8009901096332664  0.850418046324593  1.0000
  C   C22       1.0  0.06755356118610086  0.3009901096191431  0.14958195338743688  1.0000
  C   C23       1.0  0.2573991513639481  0.8613362479509845  0.7821041776349417  1.0000
  C   C24       1.0  0.7426008493216638  0.36133624793686114  0.2178958225710401  1.0000
  C   C25       1.0  0.9108579040091843  0.8183427579101807  0.1704237393318073  1.0000
  C   C26       1.0  0.08914209666266291  0.3183427578960573  0.8295762603802227  1.0000
  C   C27       1.0  0.815347230888251  0.928410918335561  0.2548769803275326  1.0000
  C   C28       1.0  0.1846527697973609  0.4284109183214376  0.7451230198784492  1.0000
  C   C29       1.0  0.96078819323414  0.9800986034986323  0.31586420426401224  1.0000
  C   C30       1.0  0.03921180539261773  0.480098603484509  0.6841357958865755  1.0000
  C   C31       1.0  0.043900248407853816  0.911195614123402  0.3734715044290457  1.0000
  C   C32       1.0  0.9560997502189039  0.41119561410927863  0.6265284957215419  1.0000
  C   C33       1.0  0.22702936909451465  0.8324576577292079  0.3776628314647587  1.0000
  C   C34       1.0  0.7729706315773326  0.3324576577150846  0.6223371682472713  1.0000
  C   C35       1.0  0.2674010359858354  0.7780392611862464  0.43668013215778556  1.0000
  C   C36       1.0  0.7325989646997766  0.27803926117212313  0.5633198680481962  1.0000
  C   C37       1.0  0.12485601353192445  0.8020661915528993  0.49045892464858243  1.0000
  C   C38       1.0  0.8751439871536876  0.3020661915387759  0.5095410755573994  1.0000
  C   C39       1.0  0.9397565618284893  0.8809074979041842  0.4864588803828941  1.0000
  C   C40       1.0  0.06024343885712263  0.38090749789006073  0.5135411198230877  1.0000
  C   C41       1.0  0.9001423181831342  0.9357353321157336  0.4277682573086164  1.0000
  C   C42       1.0  0.0998576825024778  0.43573533210161025  0.5722317428973654  1.0000
  C   C43       1.0  0.724721873478437  0.0212280767652236  0.4094033875394797  1.0000
  C   C44       1.0  0.275278125148321  0.521228076779347  0.590596612611108  1.0000
  C   C45       1.0  0.5409687922577284  0.07274057654810405  0.44446275777629485  1.0000
  C   C46       1.0  0.45903120842788353  0.5727405765622274  0.5555372424296869  1.0000
  C   C47       1.0  0.39618307127854985  0.15232395629739912  0.41372582619366005  1.0000
  C   C48       1.0  0.6038169273482081  0.6523239563115225  0.5862741739569276  1.0000
  C   C49       1.0  0.43428186329649293  0.18040986550145105  0.3489376167146339  1.0000
  C   C50       1.0  0.565718137389119  0.6804098655155745  0.6510623834913479  1.0000
  C   C51       1.0  0.6175487602171038  0.12874921984980842  0.31345799485813103  1.0000
  C   C52       1.0  0.3824512404685081  0.6287492191270599  0.6865420053478507  1.0000
  C   C53       1.0  0.7617600848981954  0.04949090078762766  0.34399723937118426  1.0000
  C   C54       1.0  0.23823991578741652  0.5494909008017511  0.6560027608347976  1.0000
  C   C55       1.0  0.5785055603559065  0.486684724755979  0.38104937556302204  1.0000
  C   C56       1.0  0.42149444032970534  0.9866847247701024  0.6189506246429598  1.0000
  C   C57       1.0  0.7637168574731583  0.5653568482849173  0.3828682351265349  1.0000
  C   C58       1.0  0.2362831431986889  0.06535684827079384  0.6171317645854951  1.0000
  C   C59       1.0  0.7405819752001027  0.6346078379038852  0.33147386712427784  1.0000
  C   C60       1.0  0.2594180234128905  0.13460783788976177  0.668526132532358  1.0000
  C   C61       1.0  0.5325159287596087  0.6253578483690458  0.2783443342742363  1.0000
  C   C62       1.0  0.46748407191223845  0.12535784835492253  0.7216556654377937  1.0000
  C   C63       1.0  0.3445422383921409  0.5476496438156845  0.27698817128401015  1.0000
  C   C64       1.0  0.6554577622797063  0.047649643801561045  0.7230118284280198  1.0000
  C   C65       1.0  0.3679519019292302  0.4783974191995464  0.32836329623692345  1.0000
  C   C66       1.0  0.6320480987563817  0.9783974192136697  0.6716367039690583  1.0000
  N   N1        1.0  0.3165578386328495  0.6569806811479401  0.9997015662635064  1.0000
  N   N2        1.0  0.6834421620527624  0.15698068113381672  0.00029843394247536015  1.0000
  N   N3        1.0  0.11114271002589551  0.7804207690107172  0.13850034441163858  1.0000
  N   N4        1.0  0.8888572885870977  0.2804207689965938  0.8614996552449972  1.0000
  O   O1        1.0  0.29543020466585607  0.8284053100013155  0.010951142093981821  1.0000
  O   O2        1.0  0.7045697939609019  0.32840530998719214  0.9890488580566059  1.0000
  O   O3        1.0  0.8664156997622046  0.5636611441156788  0.11266701689476896  1.0000
  O   O4        1.0  0.1335842988507888  0.0636611441015554  0.8873329827618669  1.0000
  O   O5        1.0  0.8973405088772308  0.8853984280548827  0.870157467379759  1.0000
  O   O6        1.0  0.10265948973576233  0.3853984280407593  0.12984253227687706  1.0000
  O   O7        1.0  0.10318135804458937  0.7794524531209915  0.8048077679978358  1.0000
  O   O8        1.0  0.8968186426410226  0.2794524531068681  0.195192232208146  1.0000
  O   O9        1.0  0.6608958309593861  0.8076806132192469  0.1542672132376233  1.0000
  O   O10       1.0  0.33910416765360724  0.3076806132051236  0.8457327864190125  1.0000
  O   O11       1.0  0.018039962948735777  0.8727958058504698  0.2241006653324252  1.0000
  O   O12       1.0  0.9819600377231115  0.37279580583634647  0.7758993343796048  1.0000
