data_image0
_chemical_formula_structural       H82C110N4P4
_chemical_formula_sum              "H82 C110 N4 P4"
_cell_length_a       11.746755631831029
_cell_length_b       11.973036832281348
_cell_length_c       15.598271046379526
_cell_angle_alpha    96.29523603202381
_cell_angle_beta     90.44698462902817
_cell_angle_gamma    105.08666309860736

_space_group_name_H-M_alt    "P 1"
_space_group_IT_number       1

loop_
  _space_group_symop_operation_xyz
  'x, y, z'

loop_
  _atom_site_type_symbol
  _atom_site_label
  _atom_site_symmetry_multiplicity
  _atom_site_fract_x
  _atom_site_fract_y
  _atom_site_fract_z
  _atom_site_occupancy
  H   H1        1.0  0.4164846913467987  0.5563862518898542  0.4136243767983339  1.0000
  H   H2        1.0  0.5835153085752115  0.44361374855334085  0.5863756230014676  1.0000
  H   H3        1.0  0.5143413789631662  0.6341154059606675  0.2842544561904598  1.0000
  H   H4        1.0  0.4856586209879882  0.3658845945753545  0.7157455442547614  1.0000
  H   H5        1.0  0.44185901941046074  0.5370375467501302  0.1379331939875818  1.0000
  H   H6        1.0  0.5581409813926823  0.46296245378844875  0.8620668064592992  1.0000
  H   H7        1.0  0.27400336008194986  0.35702020279619145  0.12080469781365079  1.0000
  H   H8        1.0  0.7259966396125614  0.6429797967810984  0.8791953019802573  1.0000
  H   H9        1.0  0.1752679399799678  0.2800253880243061  0.24988597564718873  1.0000
  H   H10       1.0  0.8247320599711867  0.7199746125117159  0.7501140247980326  1.0000
  H   H11       1.0  0.08561871905795143  0.5238551824350318  0.43135675753577996  1.0000
  H   H12       1.0  0.914381280893203  0.4761448181009902  0.5686432429094416  1.0000
  H   H13       1.0  0.07511545735093267  0.6969772841416565  0.5310894111840185  1.0000
  H   H14       1.0  0.9248845423435786  0.3030227154356333  0.4689105886098896  1.0000
  H   H15       1.0  0.19993131947616044  0.7510059306904021  0.6670115971881905  1.0000
  H   H16       1.0  0.8000686810703395  0.2489940688894445  0.3329884026073774  1.0000
  H   H17       1.0  0.34471259990176834  0.6381462538153754  0.6965293847786562  1.0000
  H   H18       1.0  0.6552874006447316  0.3618537457644713  0.3034706150169115  1.0000
  H   H19       1.0  0.35368302634607024  0.46568896985640806  0.5976778750824228  1.0000
  H   H20       1.0  0.6463169742004297  0.5343110297234387  0.40232212471314505  1.0000
  H   H21       1.0  0.4510119743625711  0.3181224047448999  0.3912862138380034  1.0000
  H   H22       1.0  0.5489880255885833  0.6818775957911221  0.608713786607218  1.0000
  H   H23       1.0  0.5824614129045921  0.22722604012468872  0.46690952689425064  1.0000
  H   H24       1.0  0.4175385867899193  0.7727739594526012  0.5330904728996576  1.0000
  H   H25       1.0  0.5213772357497757  0.14147425916625392  0.6038249009763811  1.0000
  H   H26       1.0  0.4786227639447357  0.858525740411036  0.39617509881752716  1.0000
  H   H27       1.0  0.3261035736228413  0.14899148815543942  0.6632952216029365  1.0000
  H   H28       1.0  0.67389642607167  0.8510085114218505  0.33670477819097167  1.0000
  H   H29       1.0  0.0977405020415535  0.2475394724560618  0.548392863459903  1.0000
  H   H30       1.0  0.9022594978804567  0.7524605279871333  0.4516071363398986  1.0000
  H   H31       1.0  0.014479720569809234  0.3813868016962627  0.64141373201645  1.0000
  H   H32       1.0  0.9855202799766908  0.618613197883584  0.3585862677791178  1.0000
  H   H33       1.0  0.8165546386472811  0.3818595594683683  0.6987527382633292  1.0000
  H   H34       1.0  0.18344536104723025  0.6181404401089216  0.30124726153057896  1.0000
  H   H35       1.0  0.7205276053983425  0.2387104546549928  0.7967448436791745  1.0000
  H   H36       1.0  0.2794723942961688  0.7612895449222971  0.2032551561147336  1.0000
  H   H37       1.0  0.1140139420789948  0.06409490793811082  0.7539510621420954  1.0000
  H   H38       1.0  0.8859860578721596  0.9359050925979111  0.24604893830312588  1.0000
  H   H39       1.0  0.7325636068536012  0.08009685743786898  0.8851791097475042  1.0000
  H   H40       1.0  0.2674363928409102  0.9199031421394208  0.11482089004640397  1.0000
  H   H41       1.0  0.743863165053566  0.9188508395431304  0.97123373584739  1.0000
  H   H42       1.0  0.25613683489758843  0.08114916099289157  0.028766264597831312  1.0000
  H   H43       1.0  0.8456464881565655  0.7718245968306774  0.005128618832831599  1.0000
  H   H44       1.0  0.1543535117654448  0.2281754036125177  0.9948713809669699  1.0000
  H   H45       1.0  0.02965335140311396  0.7559812926498363  0.932275012235015  1.0000
  H   H46       1.0  0.9703466491433861  0.24401870693001038  0.06772498756055292  1.0000
  H   H47       1.0  0.22124280201651314  0.8802418696462102  0.9333525054354797  1.0000
  H   H48       1.0  0.778757197905497  0.11975813079698466  0.066647494364322  1.0000
  H   H49       1.0  0.3149376582045652  0.9430348864383594  0.7096310060088552  1.0000
  H   H50       1.0  0.6850623417174451  0.05696511400483577  0.29036899379094633  1.0000
  H   H51       1.0  0.5129667017418028  0.9367729769773595  0.6554534241980497  1.0000
  H   H52       1.0  0.4870332979527085  0.0632270225999304  0.3445465755958585  1.0000
  H   H53       1.0  0.6491926602071432  0.8641824295986735  0.7450439531512394  1.0000
  H   H54       1.0  0.3508073394873682  0.1358175699786163  0.2549560466426688  1.0000
  H   H55       1.0  0.5886729978439538  0.798109409328791  0.8858310107985959  1.0000
  H   H56       1.0  0.4113270021072008  0.20189059120723107  0.11416898964662539  1.0000
  H   H57       1.0  0.4906848872762211  0.60187799118187  0.9548698348047784  1.0000
  H   H58       1.0  0.5093151126457891  0.39812200926132496  0.04513016499502313  1.0000
  H   H59       1.0  0.6594976595151786  0.5653624111882964  0.03471821271004181  1.0000
  H   H60       1.0  0.34050234017933273  0.43463758838899336  0.9652817870838664  1.0000
  H   H61       1.0  0.756137906098352  0.7039921084414744  0.16175455670829114  1.0000
  H   H62       1.0  0.2438620938236581  0.2960078920017205  0.8382454430915104  1.0000
  H   H63       1.0  0.6896991735699324  0.8811856552753496  0.20441442577332436  1.0000
  H   H64       1.0  0.31030082638122214  0.11881434526067236  0.7955855746718971  1.0000
  H   H65       1.0  0.5170214208814667  0.9144133847185058  0.12767923217788413  1.0000
  H   H66       1.0  0.48297857906968766  0.08558661581751623  0.8723207682673373  1.0000
  H   H67       1.0  0.27555833091638043  0.6446381623795937  0.8182161826080073  1.0000
  H   H68       1.0  0.7244416688072752  0.355361837290523  0.1817838178313206  1.0000
  H   H69       1.0  0.13066970927729343  0.4539452245287258  0.7868350816492702  1.0000
  H   H70       1.0  0.8693302904463622  0.5460547751413909  0.21316491879005775  1.0000
  H   H71       1.0  0.03623308017835316  0.3465547517363348  0.9066984905260524  1.0000
  H   H72       1.0  0.9637669195161581  0.653445247840955  0.09330150926785573  1.0000
  H   H73       1.0  0.09291051110118197  0.4326885066763059  0.05983868893349841  1.0000
  H   H74       1.0  0.9070894886224738  0.5673114929938109  0.9401613115058295  1.0000
  H   H75       1.0  0.23551849933222269  0.6241348411899982  0.09102603607168959  1.0000
  H   H76       1.0  0.7644815006189318  0.3758651593460239  0.9089739643735318  1.0000
  H   H77       1.0  0.8105994319386159  0.050024125508953264  0.5318015810871531  1.0000
  H   H78       1.0  0.1894005679833942  0.9499758749342418  0.46819841871264845  1.0000
  H   H79       1.0  0.8957748746555433  0.9435975350552788  0.632993985551364  1.0000
  H   H80       1.0  0.10422512503896805  0.05640246452201121  0.36700601424254414  1.0000
  H   H81       1.0  0.08424234733428469  0.8940971967377666  0.6020298859190099  1.0000
  H   H82       1.0  0.9157576523602268  0.10590280283952334  0.39797011387489833  1.0000
  C   C1        1.0  0.2904268727630756  0.4121507977547883  0.34046770545497557  1.0000
  C   C2        1.0  0.7095731271589345  0.5878492026884068  0.6595322943448261  1.0000
  C   C3        1.0  0.3858309078725362  0.5122311058986528  0.3495149660947147  1.0000
  C   C4        1.0  0.6141690918511195  0.48776889377146393  0.6504850343446132  1.0000
  C   C5        1.0  0.440386811074496  0.5562913016554483  0.2767174038127427  1.0000
  C   C6        1.0  0.5596131896995027  0.4437086987903036  0.7232825959887185  1.0000
  C   C7        1.0  0.3997752783215574  0.500919785546542  0.19438493748322114  1.0000
  C   C8        1.0  0.6002247224524413  0.4990802148992099  0.80561506231824  1.0000
  C   C9        1.0  0.3055524377631677  0.4008919365628224  0.18479268480955596  1.0000
  C   C10       1.0  0.6944475619313436  0.5991080630144674  0.8152073149843522  1.0000
  C   C11       1.0  0.25059663571730845  0.3568318789950843  0.2575558726251133  1.0000
  C   C12       1.0  0.749403364233846  0.6431681215409376  0.742444127820108  1.0000
  C   C13       1.0  0.21957765974576826  0.48217646148024934  0.507419714974743  1.0000
  C   C14       1.0  0.780422340829876  0.5178235381924243  0.49258028546624455  1.0000
  C   C15       1.0  0.14274108121336795  0.5496405289649968  0.4894456688949342  1.0000
  C   C16       1.0  0.8572589187086423  0.4503594714781983  0.5105543309048673  1.0000
  C   C17       1.0  0.1364291854189731  0.6464819742565688  0.545735576288798  1.0000
  C   C18       1.0  0.8635708142755384  0.35351802532072096  0.4542644235051102  1.0000
  C   C19       1.0  0.2070247783270084  0.677295590150193  0.6216397218121468  1.0000
  C   C20       1.0  0.7929752215950017  0.322704410293002  0.37836027798765476  1.0000
  C   C21       1.0  0.28575680492413674  0.6122948461253845  0.6392563395005801  1.0000
  C   C22       1.0  0.714243195849862  0.3877051543203675  0.36074366030088095  1.0000
  C   C23       1.0  0.29192670429731854  0.515318252201779  0.5827817641194766  1.0000
  C   C24       1.0  0.708073295653836  0.4846817483342431  0.4172182363257448  1.0000
  C   C25       1.0  0.31369313156186335  0.28574184103145317  0.4836438667813107  1.0000
  C   C26       1.0  0.6863068689846367  0.7142581585483936  0.516356133014257  1.0000
  C   C27       1.0  0.42264839462704856  0.27991575950215225  0.45033067167220325  1.0000
  C   C28       1.0  0.5773516052949615  0.7200842409410428  0.5496693281275983  1.0000
  C   C29       1.0  0.4968201229278176  0.22803645465202946  0.49302415069832245  1.0000
  C   C30       1.0  0.5031798767958382  0.7719635450180873  0.5069758497410055  1.0000
  C   C31       1.0  0.4628763153655595  0.1805853076334183  0.5698679186328586  1.0000
  C   C32       1.0  0.5371236843580961  0.8194146920366985  0.43013208180646945  1.0000
  C   C33       1.0  0.35470250210669657  0.18509692911884434  0.6035826040267828  1.0000
  C   C34       1.0  0.6452974978153136  0.8149030713243508  0.3964173957730187  1.0000
  C   C35       1.0  0.2794826475948131  0.23716715821238862  0.561462448530773  1.0000
  C   C36       1.0  0.7205173523563413  0.7628328423236332  0.43853755191444826  1.0000
  C   C37       1.0  0.16485376919797162  0.2401887682638657  0.5959157690406948  1.0000
  C   C38       1.0  0.8351462304965397  0.7598112313134242  0.40408423075321337  1.0000
  C   C39       1.0  0.02914666280926585  0.2346954422354242  0.7037902511365454  1.0000
  C   C40       1.0  0.9708533371127444  0.7653045582077708  0.2962097486632563  1.0000
  C   C41       1.0  0.971586336394218  0.3159780218982751  0.6826704502555454  1.0000
  C   C42       1.0  0.028413663300293393  0.6840219776790147  0.31732954953836284  1.0000
  C   C43       1.0  0.8601093860507604  0.31722015999744974  0.716675021350975  1.0000
  C   C44       1.0  0.13989061364375108  0.68277983957984  0.2833249784429331  1.0000
  C   C45       1.0  0.8071057640721554  0.23862979235108508  0.7719008753628106  1.0000
  C   C46       1.0  0.19289423584985493  0.7613702080921101  0.22809912443699107  1.0000
  C   C47       1.0  0.8642519899225524  0.1552833733983967  0.797575832718539  1.0000
  C   C48       1.0  0.13574800999945788  0.8447166270447984  0.20242416708126257  1.0000
  C   C49       1.0  0.9766416006464456  0.15256077900759135  0.7623146456333533  1.0000
  C   C50       1.0  0.02335839990005443  0.8474392205722554  0.2376853541622144  1.0000
  C   C51       1.0  0.031094452098522497  0.06779078807061181  0.7829554207447474  1.0000
  C   C52       1.0  0.9689055475959888  0.932209211506678  0.21704457904916072  1.0000
  C   C53       1.0  0.9804684208719269  0.9866694093874344  0.8387544738207205  1.0000
  C   C54       1.0  0.019531579050083403  0.013330591055760706  0.16124552597908104  1.0000
  C   C55       1.0  0.87130922524251  0.9922698069755622  0.878401192179594  1.0000
  C   C56       1.0  0.1286907746795001  0.007730193467632764  0.12159880762020746  1.0000
  C   C57       1.0  0.8154835762899892  0.07577896405144134  0.8557569580544423  1.0000
  C   C58       1.0  0.18451642340452215  0.9242210355258486  0.14424304173946595  1.0000
  C   C59       1.0  0.8248933468716731  0.9132654072639522  0.9394459685867631  1.0000
  C   C60       1.0  0.17510665285198246  0.08673459240616446  0.060554031852564985  1.0000
  C   C61       1.0  0.8819375635787774  0.8316589539645567  0.9584606775837012  1.0000
  C   C62       1.0  0.11806243634323275  0.16834104647863818  0.0415393222161003  1.0000
  C   C63       1.0  0.9875559720529448  0.8234631098483457  0.9180477585237437  1.0000
  C   C64       1.0  0.012444027869065505  0.17653689059484937  0.08195224127605803  1.0000
  C   C65       1.0  0.037246040600532944  0.899666351048677  0.8595572913675579  1.0000
  C   C66       1.0  0.9627539599459668  0.10033364853116973  0.14044270842800988  1.0000
  C   C67       1.0  0.22784664527771986  0.8830906928159084  0.8629158730118013  1.0000
  C   C68       1.0  0.7721533546442904  0.11690930762728674  0.1370841267880002  1.0000
  C   C69       1.0  0.3408241259081729  0.8755050583917185  0.8284024034519698  1.0000
  C   C70       1.0  0.6591758748949702  0.12449494214686034  0.1715975969949111  1.0000
  C   C71       1.0  0.37584051271907204  0.9115840374632235  0.7477071477509216  1.0000
  C   C72       1.0  0.624159488084071  0.08841596307535547  0.25229285269595936  1.0000
  C   C73       1.0  0.4863262602737319  0.9084797258529398  0.7179674655271642  1.0000
  C   C74       1.0  0.5136737396482783  0.09152027459025525  0.28203253427263747  1.0000
  C   C75       1.0  0.562798194406223  0.8678591436008635  0.7682214561769236  1.0000
  C   C76       1.0  0.4372018052882883  0.13214085597642622  0.23177854361698458  1.0000
  C   C77       1.0  0.5286571137230426  0.8308639293689113  0.8482002029264146  1.0000
  C   C78       1.0  0.47134288705095617  0.16913607107684067  0.1517997968750465  1.0000
  C   C79       1.0  0.418296276977271  0.8345659623427909  0.8797914309000275  1.0000
  C   C80       1.0  0.5817037238258721  0.165434038195788  0.12020856954685337  1.0000
  C   C81       1.0  0.493234943056127  0.7604314469177912  0.036193923212137095  1.0000
  C   C82       1.0  0.5067650568658832  0.23956855352540393  0.9638060765876644  1.0000
  C   C83       1.0  0.5338329408532182  0.6621900848452208  0.010152828332949728  1.0000
  C   C84       1.0  0.4661670596932817  0.3378099147346259  0.9898471714626181  1.0000
  C   C85       1.0  0.6280272380594459  0.6417072831042779  0.05514497859738705  1.0000
  C   C86       1.0  0.3719727625161983  0.35829271656839573  0.9448550218436005  1.0000
  C   C87       1.0  0.6830954967003694  0.719773806198786  0.1259211300067481  1.0000
  C   C88       1.0  0.3169045030232863  0.28022619347133093  0.8740788704325799  1.0000
  C   C89       1.0  0.6445569432513688  0.8187906896024746  0.1509513940136269  1.0000
  C   C90       1.0  0.3554430564431426  0.18120930997481535  0.8490486057802813  1.0000
  C   C91       1.0  0.5489884764259779  0.8384098815875076  0.10704851360683153  1.0000
  C   C92       1.0  0.4510115241205221  0.16159011799233916  0.8929514861887363  1.0000
  C   C93       1.0  0.26659487835350454  0.6487784714932846  0.9567444150004812  1.0000
  C   C94       1.0  0.733405121341007  0.3512215280840053  0.04325558479342691  1.0000
  C   C95       1.0  0.23524183000708487  0.5991616178851646  0.8714711952825525  1.0000
  C   C96       1.0  0.7647581696874264  0.40083838169212505  0.12852880451135568  1.0000
  C   C97       1.0  0.15296827328043724  0.49122392797169884  0.853662651914338  1.0000
  C   C98       1.0  0.8470317275227058  0.5087760725668801  0.14633734853254293  1.0000
  C   C99       1.0  0.10106778949429081  0.4305276203229087  0.9209386380745338  1.0000
  C   C100      1.0  0.8989322104277193  0.5694723801202863  0.07906136172526781  1.0000
  C   C101      1.0  0.1323072382639906  0.4787762092451012  0.006355403986045938  1.0000
  C   C102      1.0  0.867692761687164  0.5212237912909209  0.9936445964591755  1.0000
  C   C103      1.0  0.21343429296546396  0.5872023769873258  0.024121608120384497  1.0000
  C   C104      1.0  0.7865657067581917  0.4127976226827909  0.9758783923189436  1.0000
  C   C105      1.0  0.8936721611692711  0.028354395058043717  0.5178762488979362  1.0000
  C   C106      1.0  0.10632783940637326  0.97164560461463  0.4821237515430514  1.0000
  C   C107      1.0  0.9411379173655006  0.9682858795875438  0.5746305453309399  1.0000
  C   C108      1.0  0.058862083180999406  0.03171411999230304  0.4253694544646278  1.0000
  C   C109      1.0  0.047487514487859865  0.9401719074152024  0.5569498001457794  1.0000
  C   C110      1.0  0.9525124854341502  0.05982809302799269  0.44305019965402215  1.0000
  N   N1        1.0  0.14075059788470687  0.23121214135537976  0.6753907679588877  1.0000
  N   N2        1.0  0.8592494018098045  0.7687878582219101  0.3246092318350205  1.0000
  N   N3        1.0  0.14099373445874197  0.8951330817855838  0.8174535284059004  1.0000
  N   N4        1.0  0.8590062652357693  0.10486691779170605  0.1825464713880079  1.0000
  P   P1        1.0  0.21033110169482147  0.35099343904249414  0.43168096780677534  1.0000
  P   P2        1.0  0.7896688982271887  0.6490065614007009  0.5683190319930262  1.0000
  P   P3        1.0  0.36761544423430303  0.793579275733357  0.9857935654306206  1.0000
  P   P4        1.0  0.6323845565396957  0.20642072471239506  0.014206434370840555  1.0000
