data_image0
_chemical_formula_structural       H22C40O8S24I8
_chemical_formula_sum              "H22 C40 O8 S24 I8"
_cell_length_a       8.113556041318729
_cell_length_b       12.879217975481339
_cell_length_c       15.460614794884592
_cell_angle_alpha    77.7711864836707
_cell_angle_beta     80.57984144746503
_cell_angle_gamma    88.24059469813348

_space_group_name_H-M_alt    "P 1"
_space_group_IT_number       1

loop_
  _space_group_symop_operation_xyz
  'x, y, z'

loop_
  _atom_site_type_symbol
  _atom_site_label
  _atom_site_symmetry_multiplicity
  _atom_site_fract_x
  _atom_site_fract_y
  _atom_site_fract_z
  _atom_site_occupancy
  H   H1        1.0  0.059373607323792245  0.053628506970451593  0.8773957409789799  1.0000
  H   H2        1.0  0.9406263921907424  0.9463714931877877  0.12260425923640307  1.0000
  H   H3        1.0  0.08120588821528413  0.9267853159595659  0.8469072427022112  1.0000
  H   H4        1.0  0.9187941127666743  0.07321468357896314  0.1530927568482321  1.0000
  H   H5        1.0  0.31546319634694764  0.9650975212476818  0.9246433893768089  1.0000
  H   H6        1.0  0.6845368033663711  0.03490247906905052  0.07535661016805408  1.0000
  H   H7        1.0  0.368853612681054  0.082079009794289  0.8395875930311149  1.0000
  H   H8        1.0  0.6311463868334806  0.9179209903639501  0.1604124071842682  1.0000
  H   H9        1.0  0.4316788394620137  0.5704718423449348  0.14805097244050305  1.0000
  H   H10       1.0  0.5683211613211605  0.4295281570351012  0.8519490277804603  1.0000
  H   H11       1.0  0.44916657978788865  0.44338683307651056  0.1194751517157489  1.0000
  H   H12       1.0  0.5508334197266459  0.5566131670817286  0.8805248484996342  1.0000
  H   H13       1.0  0.14307636703671717  0.41615490439420144  0.1547788124231844  1.0000
  H   H14       1.0  0.8569236327123099  0.5838450951440225  0.8452211871286817  1.0000
  H   H15       1.0  0.19917697572321919  0.5340961299208158  0.07140938008644312  1.0000
  H   H16       1.0  0.8008230237913154  0.4659038702374234  0.9285906201289399  1.0000
  H   H17       1.0  0.9504719098045743  0.6396940332303973  0.008700774753571469  1.0000
  H   H18       1.0  0.04952808994445276  0.3603059663078264  0.9912992247982946  1.0000
  H   H19       1.0  0.8158735645468204  0.8674401747736534  0.9964712372805211  1.0000
  H   H20       1.0  0.18412643639942977  0.13255982554338433  0.0035287622629189977  1.0000
  H   H21       1.0  0.4209217801560202  0.7636110043894379  0.9846065497356178  1.0000
  H   H22       1.0  0.5790782205914455  0.23638899576910677  0.015393450478342405  1.0000
  C   C1        1.0  0.3629452879356144  0.8947235492656441  0.5376009843565644  1.0000
  C   C2        1.0  0.6370547117777042  0.10527645105108836  0.46239901518829846  1.0000
  C   C3        1.0  0.38690480269466215  0.856460365114068  0.4600361076097588  1.0000
  C   C4        1.0  0.6130951970186566  0.14353963520266444  0.5399638919351041  1.0000
  C   C5        1.0  0.2513925718646943  0.9929432154574337  0.6640175608404943  1.0000
  C   C6        1.0  0.7486074276498401  0.007056784700805521  0.33598243937488875  1.0000
  C   C7        1.0  0.3814280866733414  0.9327435369313322  0.6932342002581684  1.0000
  C   C8        1.0  0.6185719140741245  0.06725646322721239  0.30676579995579195  1.0000
  C   C9        1.0  0.36890397134989683  0.8272626075069625  0.3016202549574674  1.0000
  C   C10       1.0  0.6310960281646377  0.17273739265127674  0.6983797452579156  1.0000
  C   C11       1.0  0.49948654132136194  0.767765077425735  0.32847276441787604  1.0000
  C   C12       1.0  0.5005134596605963  0.23223492211279403  0.6715272351325674  1.0000
  C   C13       1.0  0.13660866203397679  0.0062887150621851965  0.8346708190617786  1.0000
  C   C14       1.0  0.8633913374805577  0.9937112850960541  0.16532918115360437  1.0000
  C   C15       1.0  0.31417766377502915  0.0023000266344281265  0.8538235372979396  1.0000
  C   C16       1.0  0.6858223359382896  0.9976999736823042  0.14617646224692327  1.0000
  C   C17       1.0  0.142427898419957  0.6026926587887945  0.46023073830478584  1.0000
  C   C18       1.0  0.8575721011302859  0.3973073405909361  0.5397692619176004  1.0000
  C   C19       1.0  0.11636973009635275  0.6405181529020333  0.5379755763965993  1.0000
  C   C20       1.0  0.8836302706511131  0.3594818472565112  0.4620244238173608  1.0000
  C   C21       1.0  0.25846708405841573  0.5062043917143562  0.3328221562728413  1.0000
  C   C22       1.0  0.7415329154561189  0.493795608443883  0.6671778439425416  1.0000
  C   C23       1.0  0.12849080543673805  0.5660141931866459  0.3033251924153717  1.0000
  C   C24       1.0  0.8715091940777966  0.43398580697159317  0.6966748078000113  1.0000
  C   C25       1.0  0.1309038178673142  0.6733648871309714  0.6957098726800159  1.0000
  C   C26       1.0  0.8690961816472204  0.32663511302726767  0.30429012753536716  1.0000
  C   C27       1.0  0.0006800747060265113  0.7321945766706749  0.6675358567637193  1.0000
  C   C28       1.0  0.9993199250430006  0.26780542286754894  0.33246414278814684  1.0000
  C   C29       1.0  0.3741954156352658  0.49150411673192496  0.16209162283333672  1.0000
  C   C30       1.0  0.6258045838792686  0.5084958834263142  0.8379083773820463  1.0000
  C   C31       1.0  0.19739119596578067  0.49582225933774543  0.142221926721232  1.0000
  C   C32       1.0  0.8026088035844623  0.5041777400419851  0.8577780735011543  1.0000
  C   C33       1.0  0.9555462194361893  0.724656523449985  0.007430194854616515  1.0000
  C   C34       1.0  0.04445378131127655  0.27534347670855963  0.9925698053593437  1.0000
  C   C35       1.0  0.8159003858050207  0.7819584151031078  3.480243907268522e-06  1.0000
  C   C36       1.0  0.18409961494244526  0.21804158505543667  0.9999965199700529  1.0000
  C   C37       1.0  0.12098286687688362  0.7698565518577962  0.011203860932299907  1.0000
  C   C38       1.0  0.8790171328364352  0.23014344845893628  0.988796138612563  1.0000
  C   C39       1.0  0.6567230662422104  0.7308140362712863  0.9952091018470626  1.0000
  C   C40       1.0  0.3432769333080325  0.26918596310844445  0.004790898375323551  1.0000
  O   O1        1.0  0.24958757821164465  0.7155208051808695  0.9867085323706791  1.0000
  O   O2        1.0  0.7504124225358212  0.284479194977675  0.013291467843281092  1.0000
  O   O3        1.0  0.12588362729911348  0.8564105027833799  0.037245192211630064  1.0000
  O   O4        1.0  0.8741163724142054  0.14358949753335248  0.9627548073332329  1.0000
  O   O5        1.0  0.5341574016403021  0.801280418299876  0.9831175895266876  1.0000
  O   O6        1.0  0.4658425980730166  0.19871958201685638  0.016882410018175406  1.0000
  O   O7        1.0  0.6407503847257279  0.6342003937564988  0.0022346150003635687  1.0000
  O   O8        1.0  0.3592496149875908  0.3657996065602337  0.9977653845444994  1.0000
  S   S1        1.0  0.2057471081326754  0.9848489081479672  0.5592676806722662  1.0000
  S   S2        1.0  0.7942528928135746  0.015151092169070509  0.4407323188711738  1.0000
  S   S3        1.0  0.48358542032602203  0.8538794731563539  0.621742728026523  1.0000
  S   S4        1.0  0.5164145793872965  0.1461205271603784  0.37825727151833993  1.0000
  S   S5        1.0  0.2586843173749446  0.8947277467128977  0.37868958864422325  1.0000
  S   S6        1.0  0.7413156821395899  0.10527225344534162  0.6213104115711598  1.0000
  S   S7        1.0  0.5415340184221384  0.7648650510950451  0.4360591413628879  1.0000
  S   S8        1.0  0.4584659825598198  0.23513494844348404  0.5639408581875553  1.0000
  S   S9        1.0  0.11975329814318919  0.07382522733487701  0.7208654437016077  1.0000
  S   S10       1.0  0.8802467013713452  0.9261747728233621  0.27913455651377544  1.0000
  S   S11       1.0  0.45329180273088027  0.9175494391248562  0.7948577443775879  1.0000
  S   S12       1.0  0.5467081968193627  0.08245056025487435  0.20514225584479828  1.0000
  S   S13       1.0  0.3015385557987254  0.5136263830265582  0.438408217173558  1.0000
  S   S14       1.0  0.6984614449487405  0.48637361713198635  0.5615917830404024  1.0000
  S   S15       1.0  0.023300899475862523  0.6436934812168047  0.37510488247501195  1.0000
  S   S16       1.0  0.9766991000386721  0.35630651894143456  0.624895117740371  1.0000
  S   S17       1.0  0.24212331210490717  0.6028016775775407  0.6211026370492713  1.0000
  S   S18       1.0  0.7578766876084115  0.3971983227391918  0.3788973624955916  1.0000
  S   S19       1.0  0.9602794634699703  0.7321941948976239  0.5603052871984396  1.0000
  S   S20       1.0  0.03972053604456433  0.26780580526061526  0.43969471301694346  1.0000
  S   S21       1.0  0.3899590230110618  0.42497197731693154  0.27622964994396315  1.0000
  S   S22       1.0  0.6100409777364041  0.575028022841613  0.723770350269997  1.0000
  S   S23       1.0  0.05634787303879295  0.5791797363976348  0.20183011472735182  1.0000
  S   S24       1.0  0.9436521264757417  0.42082026376060433  0.7981698854880312  1.0000
  I   I1        1.0  0.2823272338393085  0.8435657255825906  0.1792933343230143  1.0000
  I   I2        1.0  0.7176727657109344  0.15643427379713992  0.8207066658993719  1.0000
  I   I3        1.0  0.6567807701060443  0.6782717033183621  0.25303458585823146  1.0000
  I   I4        1.0  0.3432192294084902  0.32172829683987714  0.7469654143571516  1.0000
  I   I5        1.0  0.20520146972993022  0.6668079454630814  0.8196473967864654  1.0000
  I   I6        1.0  0.7947985297846043  0.3331920546951578  0.1803526034289178  1.0000
  I   I7        1.0  0.8432928798798591  0.8256073591630599  0.739228382424114  1.0000
  I   I8        1.0  0.15670711963467557  0.17439264099517918  0.26077161779126906  1.0000
